data_m2341-new_b
# start Validation Reply Form
_vrf_PLAT342_m2341-new_b
;
PROBLEM: Low Bond Precision on  C-C Bonds ...............    0.05896 Ang.  
RESPONSE: Data were collected a few times.
;
_vrf_PLAT971_m2341-new_b
;
PROBLEM: Check Calcd Resid. Dens.  0.86Ang From Ir1A            3.31 eA-3  
RESPONSE: High level of disorder. Probably mixture of compounds
;
# end Validation Reply Form
_audit_creation_date               2023-02-15
_audit_creation_method
;
Olex2 1.3
(compiled 2020.11.12 svn.r5f609507 for OlexSys, GUI svn.r6408)
;
_shelx_SHELXL_version_number       '2018/3'
loop_
  _audit_author_name
  _audit_author_email
  _audit_author_address
 'Lavi, Y.' ''
;
Weizmann Institute
Molecular Chemistry and Material Science
;
 'Diskin Posner, Y.' yael.diskin-posner@weizmann.ac.il
;
Weizmann Institute
Chemical Reserach Support
;

_audit_contact_author_address      ?
_audit_contact_author_email        ?
_audit_contact_author_name         ''
_audit_contact_author_phone        ?
_publ_contact_author_id_orcid      ?
_publ_section_references
;
Dolomanov, O.V., Bourhis, L.J., Gildea, R.J, Howard, J.A.K. & Puschmann, H.
 (2009), J. Appl. Cryst. 42, 339-341.

Sheldrick, G.M. (2015). Acta Cryst. C71, 3-8.
;
_chemical_name_common              ?
_chemical_name_systematic          ?
_chemical_formula_moiety           'C54 H84 Ir2 N3.557 P4'
_chemical_formula_sum              'C54 H84 Ir2 N3.56 P4'
_chemical_formula_weight           1291.36
_chemical_absolute_configuration   ?
_chemical_melting_point            ?
loop_
  _atom_type_symbol
  _atom_type_description
  _atom_type_scat_dispersion_real
  _atom_type_scat_dispersion_imag
  _atom_type_scat_source
 'C' 'C' 0.0033 0.0016 'International Tables Vol C Tables 4.2.6.8 and 6.1.1.4'
 'H' 'H' 0.0000 0.0000 'International Tables Vol C Tables 4.2.6.8 and 6.1.1.4'
 'Ir' 'Ir' -1.4442 7.9887
 'International Tables Vol C Tables 4.2.6.8 and 6.1.1.4'
 'N' 'N' 0.0061 0.0033 'International Tables Vol C Tables 4.2.6.8 and 6.1.1.4'
 'P' 'P' 0.1023 0.0942 'International Tables Vol C Tables 4.2.6.8 and 6.1.1.4'

_shelx_space_group_comment
;
The symmetry employed for this shelxl refinement is uniquely defined
by the following loop, which should always be used as a source of
symmetry information in preference to the above space-group names.
They are only intended as comments.
;
_space_group_crystal_system        'triclinic'
_space_group_IT_number             1
_space_group_name_H-M_alt          'P 1'
_space_group_name_Hall             'P 1'
loop_
  _space_group_symop_operation_xyz
 'x, y, z'

_cell_length_a                     11.1317(9)
_cell_length_b                     11.3506(9)
_cell_length_c                     12.1293(6)
_cell_angle_alpha                  62.825(7)
_cell_angle_beta                   73.192(6)
_cell_angle_gamma                  87.208(6)
_cell_volume                       1298.87(18)
_cell_formula_units_Z              1
_cell_measurement_reflns_used      8699
_cell_measurement_temperature      100.15
_cell_measurement_theta_max        29.9180
_cell_measurement_theta_min        1.9250
_shelx_estimated_absorpt_T_max     0.858
_shelx_estimated_absorpt_T_min     0.505
_exptl_absorpt_coefficient_mu      5.280
_exptl_absorpt_correction_T_max    1.000
_exptl_absorpt_correction_T_min    0.502
_exptl_absorpt_correction_type     gaussian
_exptl_absorpt_process_details
;
CrysAlisPro 1.171.42.54a (Rigaku Oxford Diffraction, 2022)
Numerical absorption correction based on gaussian integration over
a multifaceted crystal model
Empirical absorption correction using spherical harmonics,
implemented in SCALE3 ABSPACK scaling algorithm.
;
_exptl_absorpt_special_details     ?
_exptl_crystal_colour              orange
_exptl_crystal_colour_primary      orange
_exptl_crystal_density_diffrn      1.651
_exptl_crystal_density_meas        ?
_exptl_crystal_density_method      ?
_exptl_crystal_description         block
_exptl_crystal_F_000               647
_exptl_crystal_size_max            0.15
_exptl_crystal_size_mid            0.08
_exptl_crystal_size_min            0.03
_exptl_transmission_factor_max     ?
_exptl_transmission_factor_min     ?
_diffrn_reflns_av_R_equivalents    0.0722
_diffrn_reflns_av_unetI/netI       0.0872
_diffrn_reflns_Laue_measured_fraction_full  0.998
_diffrn_reflns_Laue_measured_fraction_max  0.998
_diffrn_reflns_limit_h_max         13
_diffrn_reflns_limit_h_min         -13
_diffrn_reflns_limit_k_max         13
_diffrn_reflns_limit_k_min         -13
_diffrn_reflns_limit_l_max         14
_diffrn_reflns_limit_l_min         -14
_diffrn_reflns_number              19886
_diffrn_reflns_point_group_measured_fraction_full  0.915
_diffrn_reflns_point_group_measured_fraction_max  0.915
_diffrn_reflns_theta_full          25.022
_diffrn_reflns_theta_max           25.022
_diffrn_reflns_theta_min           1.920
_diffrn_ambient_temperature        100.15
_diffrn_detector                   'Hybrid Pixel Array Detector'
_diffrn_detector_area_resol_mean   ?
_diffrn_detector_type              'Pilatus 300K'
_diffrn_measured_fraction_theta_full  0.998
_diffrn_measured_fraction_theta_max  0.998
_diffrn_measurement_device         'four-circle diffractometer'
_diffrn_measurement_device_type    'XtaLAB Synergy, Dualflex, Pilatus 300K'
_diffrn_measurement_method         '\w scans'
_diffrn_radiation_monochromator    mirror
_diffrn_radiation_probe            x-ray
_diffrn_radiation_type             MoK\a
_diffrn_radiation_wavelength       0.71073
_diffrn_source                     'micro-focus sealed X-ray tube'
_diffrn_source_target              Mo
_reflns_Friedel_coverage           0.833
_reflns_Friedel_fraction_full      0.831
_reflns_Friedel_fraction_max       0.831
_reflns_number_gt                  6975
_reflns_number_total               8403
_reflns_special_details
;
 Reflections were merged by SHELXL according to the crystal
 class for the calculation of statistics and refinement.
 
 _reflns_Friedel_fraction is defined as the number of unique
 Friedel pairs measured divided by the number that would be
 possible theoretically, ignoring centric projections and
 systematic absences. Completness statistics refer to single and
 composite reflections containing twin component 1 only.
;
_reflns_threshold_expression       'I > 2\s(I)'
_computing_cell_refinement         'CrysAlisPro 1.171.42.54a (Rigaku OD, 2022)'
_computing_data_collection         'CrysAlisPro 1.171.42.54a (Rigaku OD, 2022)'
_computing_data_reduction          'CrysAlisPro 1.171.42.54a (Rigaku OD, 2022)'
_computing_molecular_graphics      'Olex2 1.3 (Dolomanov et al., 2009)'
_computing_publication_material    'Olex2 1.3 (Dolomanov et al., 2009)'
_computing_structure_refinement    'SHELXL 2018/3 (Sheldrick, 2015)'
_computing_structure_solution      'SHELXT 2018/2 (Sheldrick, 2018)'
_refine_diff_density_max           3.592
_refine_diff_density_min           -2.574
_refine_diff_density_rms           0.241
_refine_ls_abs_structure_details
;
 Refined as an inversion twin.
;
_refine_ls_abs_structure_Flack     0.46(4)
_refine_ls_extinction_coef         0.0027(6)
_refine_ls_extinction_expression  
 'Fc^*^=kFc[1+0.001xFc^2^\l^3^/sin(2\q)]^-1/4^'
_refine_ls_extinction_method       'SHELXL-2018/3 (Sheldrick 2018)'
_refine_ls_goodness_of_fit_ref     1.076
_refine_ls_hydrogen_treatment      mixed
_refine_ls_matrix_type             full
_refine_ls_number_parameters       559
_refine_ls_number_reflns           8403
_refine_ls_number_restraints       487
_refine_ls_R_factor_all            0.0969
_refine_ls_R_factor_gt             0.0794
_refine_ls_restrained_S_all        1.066
_refine_ls_shift/su_max            0.010
_refine_ls_shift/su_mean           0.001
_refine_ls_structure_factor_coef   Fsqd
_refine_ls_weighting_details      
 'w=1/[\s^2^(Fo^2^)+(0.0369P)^2^+41.3394P] where P=(Fo^2^+2Fc^2^)/3'
_refine_ls_weighting_scheme        calc
_refine_ls_wR_factor_gt            0.1676
_refine_ls_wR_factor_ref           0.1764
_refine_special_details
;
 Refined as a 2-component inversion twin.
;
_olex2_refinement_description
;
1. Twinned data refinement
 Scales: 0.54(4)
 0.46(4)
2. Fixed Uiso
 At 1.2 times of:
  All C(H) groups, All C(H,H) groups, All Ir(H,H) groups
 At 1.5 times of:
  All C(H,H,H) groups
3. Restrained distances
 H48A-H44A
 -2.1 with sigma of 0.01
 H16-H48C
 -2 with sigma of 0.01
 C20-Ir1A
 -3 with sigma of 0.01
 C19-C20
 1.5 with sigma of 0.01
 C23-C22
 1.5 with sigma of 0.01
4. Uiso/Uaniso restraints and constraints
Uanis(C4) = Uanis(C1)
Uanis(C3) = Uanis(C2)
Uanis(C12) = Uanis(C13)
Uanis(C51) = Uanis(C49)
Uanis(C24) = Uanis(C22)
Uanis(P4) = Uanis(C42)
Uanis(Ir2) = Uanis(P3)
5. Rigid body (RIGU) restrains
 Ir2, Ir1, N4, N3, N2, N1, C35, C33, C34, C37, C36, C38, C39, C40, C41, C42,
 P4, P3, C32, C31, C30, C29, C28, C46, C47, C48, C43, C44, C45, C52, C54, C53,
 C49, C50, C51, P1, C21, C19, C20, C1, C2, C7, C6, C5, C4, C3, C17, C16, C18,
 C8, C9, C26, C25, C14, C13, C27, C15, C22, C23, C24, C12, C11, C10
 with sigma for 1-2 distances of 0.0001 and sigma for 1-3 distances of 0.0001
6. Others
 Sof(Ir1)=Sof(H)=Sof(HA)=Sof(Ir2)=Sof(HF)=Sof(HG)=Sof(N3)=Sof(N4)=1-FVAR(1)
 Sof(Ir1A)=Sof(HB)=Sof(HC)=Sof(Ir2A)=Sof(HD)=Sof(HE)=FVAR(1)
7.a Riding coordinates:
 Ir1(H,HA), Ir1A(HB,HC), Ir2A(HD,HE), Ir2(HF,HG)
7.b Ternary CH refined with riding coordinates:
 C16(H16), C19(H19), C22(H22), C25(H25), C43(H43), C46(H46), C49(H49), C52(H52)
7.c Secondary CH2 refined with riding coordinates:
 C1(H1A,H1B), C8(H8A,H8B), C15(H15A,H15B), C28(H28A,H28B), C35(H35A,H35B),
 C42(H42A,H42B)
7.d Me refined with riding coordinates:
 C20(H20C,H20A,H20B), C24(H24A,H24B,H24C), C44(H44A,H44B,H44C), C51(H51A,H51B,
 H51C)
7.e Aromatic/amide H refined with riding coordinates:
 C3(H3), C4(H4), C5(H5), C10(H10), C11(H11), C12(H12), C30(H30), C31(H31),
 C32(H32), C38(H38), C39(H39), C40(H40)
7.f Idealised Me refined as rotating group:
 C17(H17A,H17B,H17C), C18(H18A,H18B,H18C), C21(H21A,H21B,H21C), C23(H23A,H23B,
 H23C), C26(H26A,H26B,H26C), C27(H27A,H27B,H27C), C45(H45B,H45C,H45A), C47(H47A,
 H47B,H47C), C48(H48A,H48B,H48C), C50(H50A,H50B,H50C), C53(H53A,H53B,H53C),
 C54(H54A,H54B,H54C)
;
_atom_sites_solution_hydrogens     mixed
_atom_sites_solution_primary       ?
_atom_sites_solution_secondary     ?
loop_
  _atom_site_label
  _atom_site_type_symbol
  _atom_site_fract_x
  _atom_site_fract_y
  _atom_site_fract_z
  _atom_site_U_iso_or_equiv
  _atom_site_adp_type
  _atom_site_occupancy
  _atom_site_site_symmetry_order
  _atom_site_calc_flag
  _atom_site_refinement_flags_posn
  _atom_site_refinement_flags_adp
  _atom_site_refinement_flags_occupancy
  _atom_site_disorder_assembly
  _atom_site_disorder_group
 Ir1 Ir 0.3652(2) 0.62596(15) 0.51613(13) 0.0375(9) Uani 0.779(6) 1 d . . P A
 2
 H H 0.238062 0.650818 0.530306 0.045 Uiso 0.779(6) 1 d R U P A 2
 HA H 0.465872 0.746428 0.460156 0.045 Uiso 0.779(6) 1 d R U P A 2
 Ir1A Ir 0.3053(6) 0.6876(7) 0.5362(6) 0.034(2) Uiso 0.221(6) 1 d D . P A 1
 HB H 0.441178 0.695635 0.501849 0.040 Uiso 0.221(6) 1 d R U P A 1
 HC H 0.256569 0.803515 0.547699 0.040 Uiso 0.221(6) 1 d R U P A 1
 Ir2A Ir 0.7611(8) 0.2933(9) 0.4732(7) 0.0112(19) Uiso 0.221(6) 1 d . . P A 1
 HD H 0.636067 0.294788 0.478576 0.013 Uiso 0.221(6) 1 d R U P A 1
 HE H 0.824367 0.179588 0.445776 0.013 Uiso 0.221(6) 1 d R U P A 1
 Ir2 Ir 0.7175(2) 0.30671(16) 0.48447(14) 0.0171(4) Uani 0.779(6) 1 d . . P A
 2
 HF H 0.836407 0.305602 0.469013 0.020 Uiso 0.779(6) 1 d R U P A 2
 HG H 0.595897 0.218592 0.571743 0.020 Uiso 0.779(6) 1 d R U P A 2
 P1 P 0.3199(14) 0.7265(12) 0.3229(12) 0.052(2) Uani 1 1 d . . . . .
 P2 P 0.3229(17) 0.5975(13) 0.7259(12) 0.066(4) Uani 1 1 d . . . . .
 P3 P 0.7609(10) 0.3421(8) 0.2740(7) 0.0171(4) Uani 1 1 d . . . . .
 N3 N 0.509(4) 0.520(3) 0.489(4) 0.043(5) Uani 0.779(6) 1 d . . P A 2
 N4 N 0.584(4) 0.448(4) 0.487(4) 0.053(4) Uani 0.779(6) 1 d . . P A 2
 P4 P 0.7616(11) 0.2103(9) 0.6797(8) 0.0240(9) Uani 1 1 d . . . . .
 N1 N 0.238(3) 0.451(3) 0.584(3) 0.0442(14) Uani 1 1 d . . . . .
 N2 N 0.837(3) 0.487(3) 0.414(3) 0.0291(11) Uani 1 1 d . . . . .
 C1 C 0.162(4) 0.638(4) 0.360(4) 0.0510(15) Uani 1 1 d . . . . .
 H1A H 0.098863 0.638845 0.436159 0.061 Uiso 1 1 calc R U . . .
 H1B H 0.128661 0.678618 0.284363 0.061 Uiso 1 1 calc R U . . .
 C2 C 0.196(5) 0.495(4) 0.389(4) 0.0470(19) Uani 1 1 d . . . . .
 C3 C 0.171(4) 0.457(4) 0.300(4) 0.0470(19) Uani 1 1 d . . . . .
 H3 H 0.142253 0.516715 0.229558 0.056 Uiso 1 1 calc R U . . .
 C4 C 0.192(5) 0.325(4) 0.322(4) 0.0510(15) Uani 1 1 d . . . . .
 H4 H 0.183392 0.296111 0.262170 0.061 Uiso 1 1 calc R U . . .
 C5 C 0.224(4) 0.241(4) 0.427(4) 0.050(3) Uani 1 1 d . . . . .
 H5 H 0.223392 0.150846 0.444759 0.060 Uiso 1 1 calc R U . . .
 C6 C 0.258(4) 0.273(4) 0.518(4) 0.046(2) Uani 1 1 d . . . . .
 C7 C 0.233(4) 0.413(4) 0.491(4) 0.0448(19) Uani 1 1 d . . . . .
 C8 C 0.289(4) 0.185(4) 0.629(4) 0.0471(19) Uani 1 1 d . . . . .
 H8A H 0.381630 0.185202 0.608357 0.057 Uiso 1 1 calc R U . . .
 H8B H 0.253205 0.093891 0.657595 0.057 Uiso 1 1 calc R U . . .
 C9 C 0.242(4) 0.218(4) 0.735(4) 0.048(2) Uani 1 1 d . . . . .
 C10 C 0.188(4) 0.104(4) 0.869(4) 0.051(6) Uani 1 1 d . . . . .
 H10 H 0.185127 0.014638 0.881910 0.061 Uiso 1 1 calc R U . . .
 C11 C 0.146(5) 0.132(5) 0.968(5) 0.052(6) Uani 1 1 d . . . . .
 H11 H 0.125284 0.061232 1.054093 0.062 Uiso 1 1 calc R U . . .
 C12 C 0.132(5) 0.258(4) 0.948(4) 0.050(4) Uani 1 1 d . . . . .
 H12 H 0.090848 0.275644 1.018591 0.060 Uiso 1 1 calc R U . . .
 C13 C 0.180(5) 0.365(4) 0.821(4) 0.050(4) Uani 1 1 d . . . . .
 C14 C 0.228(4) 0.342(4) 0.708(4) 0.047(2) Uani 1 1 d . . . . .
 C15 C 0.166(5) 0.508(4) 0.803(4) 0.048(5) Uani 1 1 d . . . . .
 H15A H 0.128404 0.506539 0.888550 0.058 Uiso 1 1 calc R U . . .
 H15B H 0.110850 0.552049 0.748217 0.058 Uiso 1 1 calc R U . . .
 C16 C 0.417(4) 0.723(3) 0.184(4) 0.056(2) Uani 1 1 d . . . . .
 H16 H 0.423294 0.625626 0.213400 0.067 Uiso 1 1 calc DR U . . .
 C17 C 0.372(4) 0.768(5) 0.064(4) 0.065(6) Uani 1 1 d . . . . .
 H17A H 0.289340 0.721327 0.089290 0.097 Uiso 1 1 calc R U . . .
 H17B H 0.432751 0.745971 0.000461 0.097 Uiso 1 1 calc R U . . .
 H17C H 0.366702 0.863809 0.025096 0.097 Uiso 1 1 calc R U . . .
 C18 C 0.565(4) 0.783(3) 0.135(4) 0.051(4) Uani 1 1 d . . . . .
 H18A H 0.569746 0.879656 0.102640 0.076 Uiso 1 1 calc R U . . .
 H18B H 0.613524 0.762778 0.065287 0.076 Uiso 1 1 calc R U . . .
 H18C H 0.600601 0.742366 0.207932 0.076 Uiso 1 1 calc R U . . .
 C19 C 0.294(4) 0.905(4) 0.259(4) 0.059(3) Uani 1 1 d D . . . .
 H19 H 0.285012 0.944596 0.169568 0.071 Uiso 1 1 calc R U . . .
 C20 C 0.174(3) 0.892(3) 0.361(3) 0.071(4) Uani 1 1 d D . . . .
 H20C H 0.107297 0.843138 0.355446 0.106 Uiso 1 1 calc R U . . .
 H20A H 0.186211 0.842685 0.446930 0.106 Uiso 1 1 calc R U . . .
 H20B H 0.149980 0.980293 0.347165 0.106 Uiso 1 1 calc R U . . .
 C21 C 0.398(4) 0.981(4) 0.269(4) 0.062(4) Uani 1 1 d . . . . .
 H21A H 0.384823 0.958568 0.359839 0.093 Uiso 1 1 calc R U . . .
 H21B H 0.395559 1.076941 0.218139 0.093 Uiso 1 1 calc R U . . .
 H21C H 0.481018 0.956064 0.234252 0.093 Uiso 1 1 calc R U . . .
 C22 C 0.311(4) 0.748(4) 0.756(4) 0.075(8) Uani 1 1 d D . . . .
 H22 H 0.312499 0.722688 0.845957 0.090 Uiso 1 1 calc R U . . .
 C23 C 0.422(4) 0.847(4) 0.657(4) 0.073(10) Uani 1 1 d D . . . .
 H23A H 0.499015 0.802261 0.654907 0.110 Uiso 1 1 calc R U . . .
 H23B H 0.429259 0.917565 0.681466 0.110 Uiso 1 1 calc R U . . .
 H23C H 0.408948 0.887010 0.571341 0.110 Uiso 1 1 calc R U . . .
 C24 C 0.192(6) 0.818(5) 0.732(5) 0.075(8) Uani 1 1 d . . . . .
 H24A H 0.116791 0.756777 0.793882 0.113 Uiso 1 1 calc R U . . .
 H24B H 0.191146 0.897843 0.743029 0.113 Uiso 1 1 calc R U . . .
 H24C H 0.191976 0.842241 0.643048 0.113 Uiso 1 1 calc R U . . .
 C25 C 0.419(5) 0.499(4) 0.823(4) 0.045(6) Uani 1 1 d . . . . .
 H25 H 0.420835 0.414463 0.816582 0.054 Uiso 1 1 calc R U . . .
 C26 C 0.565(4) 0.554(4) 0.776(4) 0.057(8) Uani 1 1 d . . . . .
 H26A H 0.601013 0.579529 0.682886 0.085 Uiso 1 1 calc R U . . .
 H26B H 0.611087 0.484036 0.825294 0.085 Uiso 1 1 calc R U . . .
 H26C H 0.571583 0.631588 0.789450 0.085 Uiso 1 1 calc R U . . .
 C27 C 0.383(5) 0.454(6) 0.973(5) 0.071(13) Uani 1 1 d . . . . .
 H27A H 0.394891 0.531502 0.986083 0.107 Uiso 1 1 calc R U . . .
 H27B H 0.437910 0.387131 1.010973 0.107 Uiso 1 1 calc R U . . .
 H27C H 0.295181 0.416649 1.014388 0.107 Uiso 1 1 calc R U . . .
 C28 C 0.918(4) 0.433(3) 0.188(3) 0.0277(13) Uani 1 1 d . . . . .
 H28A H 0.978462 0.383747 0.234248 0.033 Uiso 1 1 calc R U . . .
 H28B H 0.946867 0.440507 0.099244 0.033 Uiso 1 1 calc R U . . .
 C29 C 0.917(4) 0.567(4) 0.178(3) 0.0281(16) Uani 1 1 d . . . . .
 C30 C 0.944(4) 0.681(3) 0.056(3) 0.030(5) Uani 1 1 d . . . . .
 H30 H 0.967457 0.665648 -0.018338 0.036 Uiso 1 1 calc R U . . .
 C31 C 0.941(5) 0.810(4) 0.032(3) 0.031(5) Uani 1 1 d . . . . .
 H31 H 0.974104 0.882359 -0.051973 0.038 Uiso 1 1 calc R U . . .
 C32 C 0.884(4) 0.826(3) 0.145(3) 0.031(4) Uani 1 1 d . . . . .
 H32 H 0.864645 0.912152 0.133993 0.037 Uiso 1 1 calc R U . . .
 C33 C 0.857(4) 0.726(3) 0.264(3) 0.0271(17) Uani 1 1 d . . . . .
 C34 C 0.875(4) 0.593(3) 0.284(3) 0.0270(15) Uani 1 1 d . . . . .
 C35 C 0.772(3) 0.738(3) 0.387(3) 0.0268(16) Uani 1 1 d . . . . .
 H35A H 0.683313 0.701849 0.411155 0.032 Uiso 1 1 calc R U . . .
 H35B H 0.772729 0.831433 0.371253 0.032 Uiso 1 1 calc R U . . .
 C36 C 0.836(4) 0.650(3) 0.496(3) 0.0265(16) Uani 1 1 d . . . . .
 C37 C 0.857(4) 0.531(3) 0.506(3) 0.0273(14) Uani 1 1 d . . . . .
 C38 C 0.846(4) 0.700(3) 0.575(3) 0.030(2) Uani 1 1 d . . . . .
 H38 H 0.824108 0.786460 0.561066 0.036 Uiso 1 1 calc R U . . .
 C39 C 0.892(5) 0.617(3) 0.679(3) 0.031(3) Uani 1 1 d . . . . .
 H39 H 0.911898 0.648802 0.731639 0.3(5) Uiso 1 1 calc R . . . .
 C40 C 0.907(4) 0.489(3) 0.701(3) 0.029(3) Uani 1 1 d . . . . .
 H40 H 0.930214 0.430657 0.776023 0.034 Uiso 1 1 calc R U . . .
 C41 C 0.890(4) 0.440(3) 0.622(3) 0.0243(14) Uani 1 1 d . . . . .
 C42 C 0.907(3) 0.298(3) 0.649(3) 0.0240(9) Uani 1 1 d . . . . .
 H42A H 0.938954 0.252821 0.725083 0.029 Uiso 1 1 calc R U . . .
 H42B H 0.971147 0.297062 0.573191 0.029 Uiso 1 1 calc R U . . .
 C43 C 0.786(3) 0.196(3) 0.247(3) 0.032(2) Uani 1 1 d . . . . .
 H43 H 0.812023 0.235248 0.150248 0.039 Uiso 1 1 calc R U . . .
 C44 C 0.668(3) 0.102(3) 0.291(3) 0.039(4) Uani 1 1 d . . . . .
 H44A H 0.599483 0.154217 0.265169 0.059 Uiso 1 1 calc DR U . . .
 H44B H 0.687663 0.043773 0.249498 0.059 Uiso 1 1 calc R U . . .
 H44C H 0.643064 0.047985 0.385365 0.059 Uiso 1 1 calc R U . . .
 C45 C 0.896(4) 0.126(3) 0.282(4) 0.033(4) Uani 1 1 d . . . . .
 H45B H 0.972817 0.186690 0.230654 0.050 Uiso 1 1 calc R U . . .
 H45C H 0.902749 0.049614 0.263433 0.050 Uiso 1 1 calc R U . . .
 H45A H 0.883807 0.093934 0.374616 0.050 Uiso 1 1 calc R U . . .
 C46 C 0.664(4) 0.450(4) 0.172(3) 0.033(2) Uani 1 1 d . . . . .
 H46 H 0.662609 0.536102 0.176580 0.039 Uiso 1 1 calc R U . . .
 C47 C 0.721(4) 0.481(4) 0.034(3) 0.033(4) Uani 1 1 d . . . . .
 H47A H 0.809169 0.515360 0.004501 0.050 Uiso 1 1 calc R U . . .
 H47B H 0.674715 0.547588 -0.019573 0.050 Uiso 1 1 calc R U . . .
 H47C H 0.715431 0.399460 0.025325 0.050 Uiso 1 1 calc R U . . .
 C48 C 0.540(3) 0.386(3) 0.235(3) 0.037(4) Uani 1 1 d . . . . .
 H48A H 0.538583 0.305494 0.315843 0.056 Uiso 1 1 calc DR U . . .
 H48B H 0.513128 0.360689 0.178198 0.056 Uiso 1 1 calc R U . . .
 H48C H 0.482667 0.445880 0.256129 0.056 Uiso 1 1 calc DR U . . .
 C49 C 0.806(3) 0.038(3) 0.739(3) 0.026(2) Uani 1 1 d . . . . .
 H49 H 0.807954 0.010998 0.829066 0.031 Uiso 1 1 calc R U . . .
 C50 C 0.704(3) -0.062(3) 0.756(3) 0.035(4) Uani 1 1 d . . . . .
 H50A H 0.622872 -0.054056 0.809926 0.052 Uiso 1 1 calc R U . . .
 H50B H 0.727848 -0.152659 0.798092 0.052 Uiso 1 1 calc R U . . .
 H50C H 0.697522 -0.042652 0.670617 0.052 Uiso 1 1 calc R U . . .
 C51 C 0.927(3) 0.010(3) 0.675(2) 0.026(2) Uani 1 1 d . . . . .
 H51A H 0.993506 0.071593 0.663090 0.039 Uiso 1 1 calc R U . . .
 H51B H 0.942034 -0.081874 0.729260 0.039 Uiso 1 1 calc R U . . .
 H51C H 0.926894 0.019777 0.590590 0.039 Uiso 1 1 calc R U . . .
 C52 C 0.650(3) 0.224(3) 0.820(3) 0.0257(16) Uani 1 1 d . . . . .
 H52 H 0.644619 0.321333 0.791832 0.031 Uiso 1 1 calc R U . . .
 C53 C 0.689(3) 0.170(3) 0.942(3) 0.027(3) Uani 1 1 d . . . . .
 H53A H 0.700035 0.074939 0.972026 0.041 Uiso 1 1 calc R U . . .
 H53B H 0.623684 0.180784 1.010194 0.041 Uiso 1 1 calc R U . . .
 H53C H 0.768636 0.218028 0.924148 0.041 Uiso 1 1 calc R U . . .
 C54 C 0.530(3) 0.172(3) 0.841(3) 0.027(2) Uani 1 1 d . . . . .
 H54A H 0.520280 0.187648 0.757282 0.041 Uiso 1 1 calc R U . . .
 H54B H 0.465940 0.215927 0.879428 0.041 Uiso 1 1 calc R U . . .
 H54C H 0.518836 0.076246 0.899236 0.041 Uiso 1 1 calc R U . . .

loop_
  _atom_site_aniso_label
  _atom_site_aniso_U_11
  _atom_site_aniso_U_22
  _atom_site_aniso_U_33
  _atom_site_aniso_U_23
  _atom_site_aniso_U_13
  _atom_site_aniso_U_12
 Ir1 0.0271(13) 0.0425(11) 0.0309(10) -0.0013(7) -0.0145(8) -0.0222(10)
 Ir2 0.0294(11) 0.0115(7) 0.0042(6) 0.0008(5) -0.0050(7) 0.0062(8)
 P1 0.048(3) 0.050(3) 0.046(3) -0.007(2) -0.0198(18) -0.0281(19)
 P2 0.088(8) 0.057(6) 0.037(5) 0.009(4) -0.040(6) -0.031(6)
 P3 0.0294(11) 0.0115(7) 0.0042(6) 0.0008(5) -0.0050(7) 0.0062(8)
 N3 0.033(2) 0.031(3) 0.042(9) 0.000(3) -0.005(3) -0.024(2)
 N4 0.051(2) 0.051(3) 0.044(6) -0.011(3) -0.017(3) -0.005(2)
 P4 0.038(2) 0.0223(14) 0.0064(10) -0.0017(10) -0.0082(13) 0.0039(13)
 N1 0.034(2) 0.0468(17) 0.0369(17) -0.0025(12) -0.0131(17) -0.0273(17)
 N2 0.050(2) 0.0238(14) 0.0085(12) -0.0023(9) -0.0101(12) 0.0028(14)
 C1 0.053(3) 0.0475(18) 0.041(2) -0.0044(15) -0.0223(19) -0.0238(18)
 C2 0.042(5) 0.0464(18) 0.038(2) -0.0026(15) -0.017(3) -0.0273(19)
 C3 0.042(5) 0.0464(18) 0.038(2) -0.0026(15) -0.017(3) -0.0273(19)
 C4 0.053(3) 0.0475(18) 0.041(2) -0.0044(15) -0.0223(19) -0.0238(18)
 C5 0.050(8) 0.0473(18) 0.040(3) -0.0039(16) -0.020(4) -0.025(2)
 C6 0.040(5) 0.0467(18) 0.0366(19) -0.0022(14) -0.014(3) -0.027(2)
 C7 0.036(4) 0.0463(17) 0.0364(19) -0.0018(13) -0.013(3) -0.028(2)
 C8 0.043(5) 0.0473(19) 0.0371(17) -0.0029(14) -0.015(2) -0.026(2)
 C9 0.044(6) 0.0471(17) 0.0370(17) -0.0028(13) -0.0154(19) -0.026(2)
 C10 0.052(14) 0.0471(18) 0.0372(17) -0.0027(13) -0.014(3) -0.026(2)
 C11 0.054(15) 0.0471(19) 0.0372(17) -0.0027(14) -0.014(3) -0.025(3)
 C12 0.049(10) 0.0470(19) 0.0370(17) -0.0027(14) -0.0142(19) -0.026(3)
 C13 0.049(10) 0.0470(19) 0.0370(17) -0.0027(14) -0.0142(19) -0.026(3)
 C14 0.041(5) 0.0471(17) 0.0371(16) -0.0027(13) -0.0146(17) -0.0264(18)
 C15 0.045(13) 0.047(2) 0.037(3) -0.0027(15) -0.015(4) -0.026(3)
 C16 0.054(4) 0.049(4) 0.051(4) -0.006(3) -0.020(2) -0.029(3)
 C17 0.048(6) 0.081(17) 0.050(4) -0.012(4) -0.018(3) -0.026(5)
 C18 0.052(4) 0.029(11) 0.052(5) 0.005(7) -0.024(3) -0.023(4)
 C19 0.056(4) 0.049(3) 0.059(6) -0.008(3) -0.022(3) -0.025(2)
 C20 0.062(4) 0.061(6) 0.075(8) -0.021(5) -0.013(4) -0.034(3)
 C21 0.061(5) 0.053(6) 0.054(9) -0.004(6) -0.021(5) -0.031(3)
 C22 0.087(10) 0.054(12) 0.064(15) 0.013(10) -0.060(11) -0.019(9)
 C23 0.087(10) 0.051(13) 0.065(17) 0.010(11) -0.058(11) -0.018(9)
 C24 0.087(10) 0.054(12) 0.064(15) 0.013(10) -0.060(11) -0.019(9)
 C25 0.072(8) 0.032(16) 0.038(6) -0.010(8) -0.035(7) -0.002(9)
 C26 0.073(8) 0.07(2) 0.046(8) -0.032(13) -0.029(7) -0.010(9)
 C27 0.068(11) 0.11(3) 0.041(6) -0.023(8) -0.034(7) -0.003(16)
 C28 0.043(2) 0.0253(15) 0.010(2) -0.0031(12) -0.0103(17) 0.0073(14)
 C29 0.046(4) 0.0250(15) 0.0086(12) -0.0025(11) -0.0105(14) 0.0071(14)
 C30 0.049(15) 0.0254(16) 0.0086(12) -0.0024(12) -0.0100(15) 0.0081(19)
 C31 0.052(14) 0.0253(15) 0.0088(14) -0.0022(13) -0.008(2) 0.0078(18)
 C32 0.050(11) 0.0246(15) 0.0087(14) -0.0020(11) -0.0077(18) 0.006(2)
 C33 0.042(4) 0.0241(14) 0.0088(13) -0.0021(11) -0.0084(15) 0.0044(16)
 C34 0.043(4) 0.0242(14) 0.0085(12) -0.0022(10) -0.0093(12) 0.0049(13)
 C35 0.042(4) 0.0229(19) 0.0085(14) -0.0014(12) -0.0083(16) 0.004(2)
 C36 0.043(4) 0.0220(14) 0.0090(15) -0.0019(11) -0.009(2) 0.0042(17)
 C37 0.046(4) 0.0224(14) 0.0089(14) -0.0023(10) -0.0104(19) 0.0052(15)
 C38 0.053(7) 0.0228(18) 0.012(2) -0.0038(17) -0.015(4) 0.008(3)
 C39 0.056(8) 0.0230(18) 0.013(3) -0.0042(18) -0.016(4) 0.008(3)
 C40 0.050(8) 0.0225(17) 0.010(2) -0.0030(16) -0.013(4) 0.007(3)
 C41 0.037(4) 0.0221(14) 0.0065(15) -0.0013(11) -0.006(2) 0.0032(16)
 C42 0.038(2) 0.0223(14) 0.0064(10) -0.0017(10) -0.0082(13) 0.0039(13)
 C43 0.043(3) 0.0267(19) 0.021(4) -0.008(2) -0.008(3) 0.0071(19)
 C44 0.043(3) 0.026(2) 0.041(12) -0.011(4) -0.012(4) 0.008(2)
 C45 0.043(3) 0.026(3) 0.024(8) -0.008(5) -0.009(4) 0.007(2)
 C46 0.042(2) 0.028(3) 0.017(3) -0.002(2) -0.010(2) 0.008(2)
 C47 0.046(4) 0.026(10) 0.017(3) -0.002(3) -0.0095(19) 0.006(4)
 C48 0.044(3) 0.037(7) 0.017(4) 0.000(3) -0.011(2) 0.005(2)
 C49 0.038(3) 0.0217(18) 0.011(4) -0.0010(18) -0.008(2) 0.0042(15)
 C50 0.038(3) 0.031(4) 0.033(9) -0.015(5) -0.007(3) 0.0031(18)
 C51 0.038(3) 0.0217(18) 0.011(4) -0.0010(18) -0.008(2) 0.0042(15)
 C52 0.039(3) 0.024(3) 0.009(2) -0.004(2) -0.0069(17) 0.003(2)
 C53 0.042(5) 0.025(9) 0.009(2) -0.003(2) -0.008(2) 0.001(3)
 C54 0.039(3) 0.026(6) 0.011(3) -0.004(4) -0.008(3) 0.002(2)

_geom_special_details
;
 All esds (except the esd in the dihedral angle between two l.s. planes)
 are estimated using the full covariance matrix.  The cell esds are taken
 into account individually in the estimation of esds in distances, angles
 and torsion angles; correlations between esds in cell parameters are only
 used when they are defined by crystal symmetry.  An approximate (isotropic)
 treatment of cell esds is used for estimating esds involving l.s. planes.
;
loop_
  _geom_bond_atom_site_label_1
  _geom_bond_atom_site_label_2
  _geom_bond_distance
  _geom_bond_site_symmetry_2
  _geom_bond_publ_flag
 Ir1 H 1.4055 . ?
 Ir1 HA 1.5649 . ?
 Ir1 P1 2.288(13) . ?
 Ir1 P2 2.318(13) . ?
 Ir1 N3 1.99(5) . ?
 Ir1 N1 2.17(3) . ?
 Ir1A HB 1.4436 . ?
 Ir1A HC 1.4484 . ?
 Ir1A P1 2.374(14) . ?
 Ir1A P2 2.114(13) . ?
 Ir2A HD 1.3739 . ?
 Ir2A HE 1.5626 . ?
 Ir2A P3 2.220(11) . ?
 Ir2A P4 2.239(11) . ?
 Ir2A N2 2.11(3) . ?
 Ir2 HF 1.2826 . ?
 Ir2 HG 1.5129 . ?
 Ir2 P3 2.299(8) . ?
 Ir2 N4 2.14(5) . ?
 Ir2 P4 2.302(9) . ?
 Ir2 N2 2.17(3) . ?
 P1 C1 1.90(4) . ?
 P1 C16 1.73(4) . ?
 P1 C19 1.85(5) . ?
 P2 C15 1.82(5) . ?
 P2 C22 1.90(5) . ?
 P2 C25 1.79(4) . ?
 P3 C28 1.83(5) . ?
 P3 C43 1.82(3) . ?
 P3 C46 1.86(4) . ?
 N3 N4 1.14(4) . ?
 P4 C42 1.80(4) . ?
 P4 C49 1.85(3) . ?
 P4 C52 1.87(3) . ?
 N1 C7 1.39(5) . ?
 N1 C14 1.43(5) . ?
 N2 C34 1.44(4) . ?
 N2 C37 1.48(4) . ?
 C1 H1A 0.9900 . ?
 C1 H1B 0.9900 . ?
 C1 C2 1.55(6) . ?
 C2 C3 1.43(6) . ?
 C2 C7 1.34(6) . ?
 C3 H3 0.9500 . ?
 C3 C4 1.41(6) . ?
 C4 H4 0.9500 . ?
 C4 C5 1.33(6) . ?
 C5 H5 0.9500 . ?
 C5 C6 1.45(6) . ?
 C6 C7 1.50(6) . ?
 C6 C8 1.39(5) . ?
 C8 H8A 0.9900 . ?
 C8 H8B 0.9900 . ?
 C8 C9 1.45(6) . ?
 C9 C10 1.51(5) . ?
 C9 C14 1.30(6) . ?
 C10 H10 0.9500 . ?
 C10 C11 1.33(6) . ?
 C11 H11 0.9500 . ?
 C11 C12 1.35(6) . ?
 C12 H12 0.9500 . ?
 C12 C13 1.41(6) . ?
 C13 C14 1.46(6) . ?
 C13 C15 1.54(6) . ?
 C15 H15A 0.9900 . ?
 C15 H15B 0.9900 . ?
 C16 H16 1.0000 . ?
 C16 C17 1.53(6) . ?
 C16 C18 1.65(5) . ?
 C17 H17A 0.9800 . ?
 C17 H17B 0.9800 . ?
 C17 H17C 0.9800 . ?
 C18 H18A 0.9800 . ?
 C18 H18B 0.9800 . ?
 C18 H18C 0.9800 . ?
 C19 H19 1.0000 . ?
 C19 C20 1.496(14) . ?
 C19 C21 1.54(5) . ?
 C20 H20C 0.9800 . ?
 C20 H20A 0.9800 . ?
 C20 H20B 0.9800 . ?
 C21 H21A 0.9800 . ?
 C21 H21B 0.9800 . ?
 C21 H21C 0.9800 . ?
 C22 H22 1.0000 . ?
 C22 C23 1.505(14) . ?
 C22 C24 1.54(7) . ?
 C23 H23A 0.9800 . ?
 C23 H23B 0.9800 . ?
 C23 H23C 0.9800 . ?
 C24 H24A 0.9800 . ?
 C24 H24B 0.9800 . ?
 C24 H24C 0.9800 . ?
 C25 H25 1.0000 . ?
 C25 C26 1.61(7) . ?
 C25 C27 1.57(6) . ?
 C26 H26A 0.9800 . ?
 C26 H26B 0.9800 . ?
 C26 H26C 0.9800 . ?
 C27 H27A 0.9800 . ?
 C27 H27B 0.9800 . ?
 C27 H27C 0.9800 . ?
 C28 H28A 0.9900 . ?
 C28 H28B 0.9900 . ?
 C28 C29 1.47(5) . ?
 C29 C30 1.41(5) . ?
 C29 C34 1.39(5) . ?
 C30 H30 0.9500 . ?
 C30 C31 1.36(5) . ?
 C31 H31 0.9500 . ?
 C31 C32 1.42(5) . ?
 C32 H32 0.9500 . ?
 C32 C33 1.32(4) . ?
 C33 C34 1.43(5) . ?
 C33 C35 1.58(4) . ?
 C35 H35A 0.9900 . ?
 C35 H35B 0.9900 . ?
 C35 C36 1.59(4) . ?
 C36 C37 1.32(5) . ?
 C36 C38 1.35(5) . ?
 C37 C41 1.46(4) . ?
 C38 H38 0.9500 . ?
 C38 C39 1.40(5) . ?
 C39 H39 0.9500 . ?
 C39 C40 1.36(5) . ?
 C40 H40 0.9500 . ?
 C40 C41 1.36(5) . ?
 C41 C42 1.50(4) . ?
 C42 H42A 0.9900 . ?
 C42 H42B 0.9900 . ?
 C43 H43 1.0000 . ?
 C43 C44 1.53(5) . ?
 C43 C45 1.49(5) . ?
 C44 H44A 0.9800 . ?
 C44 H44B 0.9800 . ?
 C44 H44C 0.9800 . ?
 C45 H45B 0.9800 . ?
 C45 H45C 0.9800 . ?
 C45 H45A 0.9800 . ?
 C46 H46 1.0000 . ?
 C46 C47 1.49(5) . ?
 C46 C48 1.41(6) . ?
 C47 H47A 0.9800 . ?
 C47 H47B 0.9800 . ?
 C47 H47C 0.9800 . ?
 C48 H48A 0.9800 . ?
 C48 H48B 0.9800 . ?
 C48 H48C 0.9800 . ?
 C49 H49 1.0000 . ?
 C49 C50 1.54(5) . ?
 C49 C51 1.45(4) . ?
 C50 H50A 0.9800 . ?
 C50 H50B 0.9800 . ?
 C50 H50C 0.9800 . ?
 C51 H51A 0.9800 . ?
 C51 H51B 0.9800 . ?
 C51 H51C 0.9800 . ?
 C52 H52 1.0000 . ?
 C52 C53 1.51(4) . ?
 C52 C54 1.39(5) . ?
 C53 H53A 0.9800 . ?
 C53 H53B 0.9800 . ?
 C53 H53C 0.9800 . ?
 C54 H54A 0.9800 . ?
 C54 H54B 0.9800 . ?
 C54 H54C 0.9800 . ?

loop_
  _geom_angle_atom_site_label_1
  _geom_angle_atom_site_label_2
  _geom_angle_atom_site_label_3
  _geom_angle
  _geom_angle_site_symmetry_1
  _geom_angle_site_symmetry_3
  _geom_angle_publ_flag
 H Ir1 HA 118.3 . . ?
 P1 Ir1 H 66.8 . . ?
 P1 Ir1 HA 87.8 . . ?
 P1 Ir1 P2 147.9(5) . . ?
 P2 Ir1 H 85.3 . . ?
 P2 Ir1 HA 92.2 . . ?
 N3 Ir1 H 152.0 . . ?
 N3 Ir1 HA 87.1 . . ?
 N3 Ir1 P1 105.4(12) . . ?
 N3 Ir1 P2 106.6(12) . . ?
 N3 Ir1 N1 88.2(13) . . ?
 N1 Ir1 H 65.9 . . ?
 N1 Ir1 HA 174.7 . . ?
 N1 Ir1 P1 91.3(9) . . ?
 N1 Ir1 P2 91.3(10) . . ?
 HB Ir1A HC 112.0 . . ?
 P1 Ir1A HB 89.1 . . ?
 P1 Ir1A HC 106.6 . . ?
 P2 Ir1A HB 81.7 . . ?
 P2 Ir1A HC 92.4 . . ?
 P2 Ir1A P1 160.9(7) . . ?
 HD Ir2A HE 112.7 . . ?
 P3 Ir2A HD 75.0 . . ?
 P3 Ir2A HE 74.0 . . ?
 P3 Ir2A P4 170.8(5) . . ?
 P4 Ir2A HD 105.3 . . ?
 P4 Ir2A HE 97.7 . . ?
 N2 Ir2A HD 109.6 . . ?
 N2 Ir2A HE 130.1 . . ?
 N2 Ir2A P3 93.0(8) . . ?
 N2 Ir2A P4 95.5(8) . . ?
 HF Ir2 HG 139.8 . . ?
 P3 Ir2 HF 87.8 . . ?
 P3 Ir2 HG 112.0 . . ?
 P3 Ir2 P4 150.1(3) . . ?
 N4 Ir2 HF 135.0 . . ?
 N4 Ir2 HG 77.4 . . ?
 N4 Ir2 P3 100.6(12) . . ?
 N4 Ir2 P4 108.9(13) . . ?
 N4 Ir2 N2 77.4(14) . . ?
 P4 Ir2 HF 67.9 . . ?
 P4 Ir2 HG 80.1 . . ?
 N2 Ir2 HF 58.4 . . ?
 N2 Ir2 HG 149.6 . . ?
 N2 Ir2 P3 89.3(7) . . ?
 N2 Ir2 P4 92.1(8) . . ?
 C1 P1 Ir1 104.0(14) . . ?
 C1 P1 Ir1A 98.7(14) . . ?
 C16 P1 Ir1 121.8(14) . . ?
 C16 P1 Ir1A 144.5(15) . . ?
 C16 P1 C1 106(2) . . ?
 C16 P1 C19 101.2(16) . . ?
 C19 P1 Ir1 117.4(16) . . ?
 C19 P1 Ir1A 96.5(15) . . ?
 C19 P1 C1 105.0(19) . . ?
 C15 P2 Ir1 101.7(15) . . ?
 C15 P2 Ir1A 94.8(15) . . ?
 C15 P2 C22 106(2) . . ?
 C22 P2 Ir1 119.8(13) . . ?
 C22 P2 Ir1A 99.2(14) . . ?
 C25 P2 Ir1 119.2(17) . . ?
 C25 P2 Ir1A 143.9(18) . . ?
 C25 P2 C15 106(2) . . ?
 C25 P2 C22 102.3(19) . . ?
 C28 P3 Ir2A 97.3(12) . . ?
 C28 P3 Ir2 105.9(12) . . ?
 C28 P3 C46 102.7(18) . . ?
 C43 P3 Ir2A 110.7(12) . . ?
 C43 P3 Ir2 116.8(11) . . ?
 C43 P3 C28 100.8(16) . . ?
 C43 P3 C46 108.4(18) . . ?
 C46 P3 Ir2A 131.3(13) . . ?
 C46 P3 Ir2 119.3(12) . . ?
 N4 N3 Ir1 172(3) . . ?
 N3 N4 Ir2 177(3) . . ?
 C42 P4 Ir2A 97.6(10) . . ?
 C42 P4 Ir2 105.1(10) . . ?
 C42 P4 C49 100.6(15) . . ?
 C42 P4 C52 105.0(15) . . ?
 C49 P4 Ir2A 110.3(11) . . ?
 C49 P4 Ir2 117.7(11) . . ?
 C49 P4 C52 107.9(13) . . ?
 C52 P4 Ir2A 130.6(11) . . ?
 C52 P4 Ir2 118.2(11) . . ?
 C7 N1 Ir1 117(3) . . ?
 C7 N1 C14 113(3) . . ?
 C14 N1 Ir1 119(2) . . ?
 C34 N2 Ir2A 126(2) . . ?
 C34 N2 Ir2 126(2) . . ?
 C34 N2 C37 111(3) . . ?
 C37 N2 Ir2A 123(2) . . ?
 C37 N2 Ir2 121(2) . . ?
 P1 C1 H1A 111.4 . . ?
 P1 C1 H1B 111.4 . . ?
 H1A C1 H1B 109.2 . . ?
 C2 C1 P1 102(3) . . ?
 C2 C1 H1A 111.4 . . ?
 C2 C1 H1B 111.4 . . ?
 C3 C2 C1 112(4) . . ?
 C7 C2 C1 124(4) . . ?
 C7 C2 C3 124(4) . . ?
 C2 C3 H3 121.7 . . ?
 C4 C3 C2 117(4) . . ?
 C4 C3 H3 121.7 . . ?
 C3 C4 H4 120.2 . . ?
 C5 C4 C3 120(4) . . ?
 C5 C4 H4 120.2 . . ?
 C4 C5 H5 116.3 . . ?
 C4 C5 C6 127(4) . . ?
 C6 C5 H5 116.3 . . ?
 C5 C6 C7 110(3) . . ?
 C8 C6 C5 127(4) . . ?
 C8 C6 C7 121(4) . . ?
 N1 C7 C6 118(4) . . ?
 C2 C7 N1 120(4) . . ?
 C2 C7 C6 122(4) . . ?
 C6 C8 H8A 109.0 . . ?
 C6 C8 H8B 109.0 . . ?
 C6 C8 C9 113(4) . . ?
 H8A C8 H8B 107.8 . . ?
 C9 C8 H8A 109.0 . . ?
 C9 C8 H8B 109.0 . . ?
 C8 C9 C10 117(4) . . ?
 C14 C9 C8 119(4) . . ?
 C14 C9 C10 123(4) . . ?
 C9 C10 H10 121.1 . . ?
 C11 C10 C9 118(4) . . ?
 C11 C10 H10 121.1 . . ?
 C10 C11 H11 119.3 . . ?
 C10 C11 C12 121(4) . . ?
 C12 C11 H11 119.3 . . ?
 C11 C12 H12 120.2 . . ?
 C11 C12 C13 120(4) . . ?
 C13 C12 H12 120.2 . . ?
 C12 C13 C14 122(4) . . ?
 C12 C13 C15 118(4) . . ?
 C14 C13 C15 120(4) . . ?
 N1 C14 C13 118(4) . . ?
 C9 C14 N1 127(4) . . ?
 C9 C14 C13 115(4) . . ?
 P2 C15 H15A 110.2 . . ?
 P2 C15 H15B 110.2 . . ?
 C13 C15 P2 108(3) . . ?
 C13 C15 H15A 110.2 . . ?
 C13 C15 H15B 110.2 . . ?
 H15A C15 H15B 108.5 . . ?
 P1 C16 H16 102.9 . . ?
 C17 C16 P1 120(3) . . ?
 C17 C16 H16 102.9 . . ?
 C17 C16 C18 108(3) . . ?
 C18 C16 P1 117(3) . . ?
 C18 C16 H16 102.9 . . ?
 C16 C17 H17A 109.5 . . ?
 C16 C17 H17B 109.5 . . ?
 C16 C17 H17C 109.5 . . ?
 H17A C17 H17B 109.5 . . ?
 H17A C17 H17C 109.5 . . ?
 H17B C17 H17C 109.5 . . ?
 C16 C18 H18A 109.5 . . ?
 C16 C18 H18B 109.5 . . ?
 C16 C18 H18C 109.5 . . ?
 H18A C18 H18B 109.5 . . ?
 H18A C18 H18C 109.5 . . ?
 H18B C18 H18C 109.5 . . ?
 P1 C19 H19 113.1 . . ?
 C20 C19 P1 98(2) . . ?
 C20 C19 H19 113.1 . . ?
 C20 C19 C21 109(3) . . ?
 C21 C19 P1 110(3) . . ?
 C21 C19 H19 113.1 . . ?
 C19 C20 H20C 109.5 . . ?
 C19 C20 H20A 109.5 . . ?
 C19 C20 H20B 109.5 . . ?
 H20C C20 H20A 109.5 . . ?
 H20C C20 H20B 109.5 . . ?
 H20A C20 H20B 109.5 . . ?
 C19 C21 H21A 109.5 . . ?
 C19 C21 H21B 109.5 . . ?
 C19 C21 H21C 109.5 . . ?
 H21A C21 H21B 109.5 . . ?
 H21A C21 H21C 109.5 . . ?
 H21B C21 H21C 109.5 . . ?
 P2 C22 H22 110.5 . . ?
 C23 C22 P2 107(3) . . ?
 C23 C22 H22 110.5 . . ?
 C23 C22 C24 106(4) . . ?
 C24 C22 P2 112(3) . . ?
 C24 C22 H22 110.5 . . ?
 C22 C23 H23A 109.5 . . ?
 C22 C23 H23B 109.5 . . ?
 C22 C23 H23C 109.5 . . ?
 H23A C23 H23B 109.5 . . ?
 H23A C23 H23C 109.5 . . ?
 H23B C23 H23C 109.5 . . ?
 C22 C24 H24A 109.5 . . ?
 C22 C24 H24B 109.5 . . ?
 C22 C24 H24C 109.5 . . ?
 H24A C24 H24B 109.5 . . ?
 H24A C24 H24C 109.5 . . ?
 H24B C24 H24C 109.5 . . ?
 P2 C25 H25 104.7 . . ?
 C26 C25 P2 117(3) . . ?
 C26 C25 H25 104.7 . . ?
 C27 C25 P2 122(4) . . ?
 C27 C25 H25 104.7 . . ?
 C27 C25 C26 101(3) . . ?
 C25 C26 H26A 109.5 . . ?
 C25 C26 H26B 109.5 . . ?
 C25 C26 H26C 109.5 . . ?
 H26A C26 H26B 109.5 . . ?
 H26A C26 H26C 109.5 . . ?
 H26B C26 H26C 109.5 . . ?
 C25 C27 H27A 109.5 . . ?
 C25 C27 H27B 109.5 . . ?
 C25 C27 H27C 109.5 . . ?
 H27A C27 H27B 109.5 . . ?
 H27A C27 H27C 109.5 . . ?
 H27B C27 H27C 109.5 . . ?
 P3 C28 H28A 109.5 . . ?
 P3 C28 H28B 109.5 . . ?
 H28A C28 H28B 108.0 . . ?
 C29 C28 P3 111(3) . . ?
 C29 C28 H28A 109.5 . . ?
 C29 C28 H28B 109.5 . . ?
 C30 C29 C28 121(3) . . ?
 C34 C29 C28 124(3) . . ?
 C34 C29 C30 115(3) . . ?
 C29 C30 H30 116.5 . . ?
 C31 C30 C29 127(3) . . ?
 C31 C30 H30 116.5 . . ?
 C30 C31 H31 123.0 . . ?
 C30 C31 C32 114(3) . . ?
 C32 C31 H31 123.0 . . ?
 C31 C32 H32 118.5 . . ?
 C33 C32 C31 123(3) . . ?
 C33 C32 H32 118.5 . . ?
 C32 C33 C34 120(3) . . ?
 C32 C33 C35 123(3) . . ?
 C34 C33 C35 115(3) . . ?
 C29 C34 N2 121(3) . . ?
 C29 C34 C33 120(3) . . ?
 C33 C34 N2 118(3) . . ?
 C33 C35 H35A 111.2 . . ?
 C33 C35 H35B 111.2 . . ?
 C33 C35 C36 103(2) . . ?
 H35A C35 H35B 109.1 . . ?
 C36 C35 H35A 111.2 . . ?
 C36 C35 H35B 111.2 . . ?
 C37 C36 C35 114(3) . . ?
 C37 C36 C38 129(3) . . ?
 C38 C36 C35 116(3) . . ?
 C36 C37 N2 123(3) . . ?
 C36 C37 C41 115(3) . . ?
 C41 C37 N2 122(3) . . ?
 C36 C38 H38 121.9 . . ?
 C36 C38 C39 116(3) . . ?
 C39 C38 H38 121.9 . . ?
 C38 C39 H39 120.8 . . ?
 C40 C39 C38 118(3) . . ?
 C40 C39 H39 120.8 . . ?
 C39 C40 H40 118.1 . . ?
 C39 C40 C41 124(3) . . ?
 C41 C40 H40 118.1 . . ?
 C37 C41 C42 119(3) . . ?
 C40 C41 C37 118(3) . . ?
 C40 C41 C42 123(3) . . ?
 P4 C42 H42A 109.4 . . ?
 P4 C42 H42B 109.4 . . ?
 C41 C42 P4 111(3) . . ?
 C41 C42 H42A 109.4 . . ?
 C41 C42 H42B 109.4 . . ?
 H42A C42 H42B 108.0 . . ?
 P3 C43 H43 103.2 . . ?
 C44 C43 P3 117(2) . . ?
 C44 C43 H43 103.2 . . ?
 C45 C43 P3 115(3) . . ?
 C45 C43 H43 103.2 . . ?
 C45 C43 C44 113(3) . . ?
 C43 C44 H44A 109.5 . . ?
 C43 C44 H44B 109.5 . . ?
 C43 C44 H44C 109.5 . . ?
 H44A C44 H44B 109.5 . . ?
 H44A C44 H44C 109.5 . . ?
 H44B C44 H44C 109.5 . . ?
 C43 C45 H45B 109.5 . . ?
 C43 C45 H45C 109.5 . . ?
 C43 C45 H45A 109.5 . . ?
 H45B C45 H45C 109.5 . . ?
 H45B C45 H45A 109.5 . . ?
 H45C C45 H45A 109.5 . . ?
 P3 C46 H46 107.5 . . ?
 C47 C46 P3 111(3) . . ?
 C47 C46 H46 107.5 . . ?
 C48 C46 P3 105(2) . . ?
 C48 C46 H46 107.5 . . ?
 C48 C46 C47 117(4) . . ?
 C46 C47 H47A 109.5 . . ?
 C46 C47 H47B 109.5 . . ?
 C46 C47 H47C 109.5 . . ?
 H47A C47 H47B 109.5 . . ?
 H47A C47 H47C 109.5 . . ?
 H47B C47 H47C 109.5 . . ?
 C46 C48 H48A 109.5 . . ?
 C46 C48 H48B 109.5 . . ?
 C46 C48 H48C 109.5 . . ?
 H48A C48 H48B 109.5 . . ?
 H48A C48 H48C 109.5 . . ?
 H48B C48 H48C 109.5 . . ?
 P4 C49 H49 104.7 . . ?
 C50 C49 P4 113(2) . . ?
 C50 C49 H49 104.7 . . ?
 C51 C49 P4 120(2) . . ?
 C51 C49 H49 104.7 . . ?
 C51 C49 C50 108(3) . . ?
 C49 C50 H50A 109.5 . . ?
 C49 C50 H50B 109.5 . . ?
 C49 C50 H50C 109.5 . . ?
 H50A C50 H50B 109.5 . . ?
 H50A C50 H50C 109.5 . . ?
 H50B C50 H50C 109.5 . . ?
 C49 C51 H51A 109.5 . . ?
 C49 C51 H51B 109.5 . . ?
 C49 C51 H51C 109.5 . . ?
 H51A C51 H51B 109.5 . . ?
 H51A C51 H51C 109.5 . . ?
 H51B C51 H51C 109.5 . . ?
 P4 C52 H52 106.0 . . ?
 C53 C52 P4 116(2) . . ?
 C53 C52 H52 106.0 . . ?
 C54 C52 P4 109(2) . . ?
 C54 C52 H52 106.0 . . ?
 C54 C52 C53 114(3) . . ?
 C52 C53 H53A 109.5 . . ?
 C52 C53 H53B 109.5 . . ?
 C52 C53 H53C 109.5 . . ?
 H53A C53 H53B 109.5 . . ?
 H53A C53 H53C 109.5 . . ?
 H53B C53 H53C 109.5 . . ?
 C52 C54 H54A 109.5 . . ?
 C52 C54 H54B 109.5 . . ?
 C52 C54 H54C 109.5 . . ?
 H54A C54 H54B 109.5 . . ?
 H54A C54 H54C 109.5 . . ?
 H54B C54 H54C 109.5 . . ?

loop_
  _geom_torsion_atom_site_label_1
  _geom_torsion_atom_site_label_2
  _geom_torsion_atom_site_label_3
  _geom_torsion_atom_site_label_4
  _geom_torsion
  _geom_torsion_site_symmetry_1
  _geom_torsion_site_symmetry_2
  _geom_torsion_site_symmetry_3
  _geom_torsion_site_symmetry_4
  _geom_torsion_publ_flag
 Ir1 P1 C16 C17 168(3) . . . . ?
 Ir1 P1 C16 C18 -57(3) . . . . ?
 Ir1 P1 C19 C20 -67(3) . . . . ?
 Ir1 P1 C19 C21 46(3) . . . . ?
 Ir1 P2 C15 C13 72(3) . . . . ?
 Ir1 P2 C22 C23 -46(3) . . . . ?
 Ir1 P2 C22 C24 70(3) . . . . ?
 Ir1 P2 C25 C26 65(3) . . . . ?
 Ir1 P2 C25 C27 -169(3) . . . . ?
 Ir1 N1 C7 C2 -61(5) . . . . ?
 Ir1 N1 C7 C6 125(3) . . . . ?
 Ir1 N1 C14 C9 -126(4) . . . . ?
 Ir1 N1 C14 C13 62(5) . . . . ?
 Ir1A P1 C16 C17 -178(2) . . . . ?
 Ir1A P1 C16 C18 -43(3) . . . . ?
 Ir1A P1 C19 C20 -53(2) . . . . ?
 Ir1A P1 C19 C21 60(3) . . . . ?
 Ir1A P2 C15 C13 97(3) . . . . ?
 Ir1A P2 C22 C23 -63(3) . . . . ?
 Ir1A P2 C22 C24 53(3) . . . . ?
 Ir1A P2 C25 C26 55(4) . . . . ?
 Ir1A P2 C25 C27 -179(3) . . . . ?
 Ir2A P3 C28 C29 -76(2) . . . . ?
 Ir2A P3 C43 C44 86(3) . . . . ?
 Ir2A P3 C43 C45 -50(3) . . . . ?
 Ir2A P3 C46 C47 165(2) . . . . ?
 Ir2A P3 C46 C48 -67(3) . . . . ?
 Ir2A P4 C42 C41 78(2) . . . . ?
 Ir2A P4 C49 C50 -69(2) . . . . ?
 Ir2A P4 C49 C51 60(3) . . . . ?
 Ir2A P4 C52 C53 -172.3(19) . . . . ?
 Ir2A P4 C52 C54 59(3) . . . . ?
 Ir2A N2 C34 C29 -28(5) . . . . ?
 Ir2A N2 C34 C33 145(3) . . . . ?
 Ir2A N2 C37 C36 -141(3) . . . . ?
 Ir2A N2 C37 C41 33(5) . . . . ?
 Ir2 P3 C28 C29 -67(2) . . . . ?
 Ir2 P3 C43 C44 74(3) . . . . ?
 Ir2 P3 C43 C45 -62(3) . . . . ?
 Ir2 P3 C46 C47 169(2) . . . . ?
 Ir2 P3 C46 C48 -62(3) . . . . ?
 Ir2 P4 C42 C41 68(2) . . . . ?
 Ir2 P4 C49 C50 -58(2) . . . . ?
 Ir2 P4 C49 C51 71(3) . . . . ?
 Ir2 P4 C52 C53 -175(2) . . . . ?
 Ir2 P4 C52 C54 56(2) . . . . ?
 Ir2 N2 C34 C29 -45(5) . . . . ?
 Ir2 N2 C34 C33 129(3) . . . . ?
 Ir2 N2 C37 C36 -125(4) . . . . ?
 Ir2 N2 C37 C41 48(5) . . . . ?
 P1 C1 C2 C3 -119(3) . . . . ?
 P1 C1 C2 C7 67(5) . . . . ?
 P3 C28 C29 C30 -116(4) . . . . ?
 P3 C28 C29 C34 56(5) . . . . ?
 N2 C37 C41 C40 -180(4) . . . . ?
 N2 C37 C41 C42 1(6) . . . . ?
 C1 P1 C16 C17 50(3) . . . . ?
 C1 P1 C16 C18 -175(2) . . . . ?
 C1 P1 C19 C20 48(3) . . . . ?
 C1 P1 C19 C21 161(3) . . . . ?
 C1 C2 C3 C4 -176(4) . . . . ?
 C1 C2 C7 N1 2(7) . . . . ?
 C1 C2 C7 C6 177(4) . . . . ?
 C2 C3 C4 C5 5(7) . . . . ?
 C3 C2 C7 N1 -171(4) . . . . ?
 C3 C2 C7 C6 3(7) . . . . ?
 C3 C4 C5 C6 -10(8) . . . . ?
 C4 C5 C6 C7 10(7) . . . . ?
 C4 C5 C6 C8 178(5) . . . . ?
 C5 C6 C7 N1 168(4) . . . . ?
 C5 C6 C7 C2 -6(6) . . . . ?
 C5 C6 C8 C9 -143(5) . . . . ?
 C6 C8 C9 C10 140(4) . . . . ?
 C6 C8 C9 C14 -29(5) . . . . ?
 C7 N1 C14 C9 16(6) . . . . ?
 C7 N1 C14 C13 -155(4) . . . . ?
 C7 C2 C3 C4 -2(7) . . . . ?
 C7 C6 C8 C9 25(5) . . . . ?
 C8 C6 C7 N1 -1(6) . . . . ?
 C8 C6 C7 C2 -176(4) . . . . ?
 C8 C9 C10 C11 179(4) . . . . ?
 C8 C9 C14 N1 9(7) . . . . ?
 C8 C9 C14 C13 -180(4) . . . . ?
 C9 C10 C11 C12 10(8) . . . . ?
 C10 C9 C14 N1 -159(4) . . . . ?
 C10 C9 C14 C13 13(6) . . . . ?
 C10 C11 C12 C13 -9(8) . . . . ?
 C11 C12 C13 C14 9(8) . . . . ?
 C11 C12 C13 C15 -178(4) . . . . ?
 C12 C13 C14 N1 161(4) . . . . ?
 C12 C13 C14 C9 -11(7) . . . . ?
 C12 C13 C15 P2 124(4) . . . . ?
 C14 N1 C7 C2 156(4) . . . . ?
 C14 N1 C7 C6 -19(5) . . . . ?
 C14 C9 C10 C11 -13(7) . . . . ?
 C14 C13 C15 P2 -63(5) . . . . ?
 C15 P2 C22 C23 -161(3) . . . . ?
 C15 P2 C22 C24 -45(4) . . . . ?
 C15 P2 C25 C26 179(3) . . . . ?
 C15 P2 C25 C27 -55(4) . . . . ?
 C15 C13 C14 N1 -11(6) . . . . ?
 C15 C13 C14 C9 177(4) . . . . ?
 C16 P1 C19 C20 158(3) . . . . ?
 C16 P1 C19 C21 -89(3) . . . . ?
 C19 P1 C16 C17 -59(3) . . . . ?
 C19 P1 C16 C18 75(3) . . . . ?
 C22 P2 C15 C13 -162(3) . . . . ?
 C22 P2 C25 C26 -70(3) . . . . ?
 C22 P2 C25 C27 56(4) . . . . ?
 C25 P2 C15 C13 -53(3) . . . . ?
 C25 P2 C22 C23 88(3) . . . . ?
 C25 P2 C22 C24 -156(3) . . . . ?
 C28 P3 C43 C44 -172(3) . . . . ?
 C28 P3 C43 C45 52(3) . . . . ?
 C28 P3 C46 C47 53(3) . . . . ?
 C28 P3 C46 C48 -179(3) . . . . ?
 C28 C29 C30 C31 177(4) . . . . ?
 C28 C29 C34 N2 4(7) . . . . ?
 C28 C29 C34 C33 -169(4) . . . . ?
 C29 C30 C31 C32 -11(7) . . . . ?
 C30 C29 C34 N2 177(4) . . . . ?
 C30 C29 C34 C33 3(6) . . . . ?
 C30 C31 C32 C33 11(7) . . . . ?
 C31 C32 C33 C34 -5(7) . . . . ?
 C31 C32 C33 C35 -168(4) . . . . ?
 C32 C33 C34 N2 -176(4) . . . . ?
 C32 C33 C34 C29 -3(6) . . . . ?
 C32 C33 C35 C36 -144(4) . . . . ?
 C33 C35 C36 C37 -50(4) . . . . ?
 C33 C35 C36 C38 138(3) . . . . ?
 C34 N2 C37 C36 39(5) . . . . ?
 C34 N2 C37 C41 -148(4) . . . . ?
 C34 C29 C30 C31 4(7) . . . . ?
 C34 C33 C35 C36 53(4) . . . . ?
 C35 C33 C34 N2 -12(5) . . . . ?
 C35 C33 C34 C29 162(4) . . . . ?
 C35 C36 C37 N2 7(6) . . . . ?
 C35 C36 C37 C41 -167(3) . . . . ?
 C35 C36 C38 C39 174(4) . . . . ?
 C36 C37 C41 C40 -6(6) . . . . ?
 C36 C37 C41 C42 175(4) . . . . ?
 C36 C38 C39 C40 -8(6) . . . . ?
 C37 N2 C34 C29 152(4) . . . . ?
 C37 N2 C34 C33 -34(5) . . . . ?
 C37 C36 C38 C39 3(7) . . . . ?
 C37 C41 C42 P4 -65(4) . . . . ?
 C38 C36 C37 N2 178(4) . . . . ?
 C38 C36 C37 C41 4(7) . . . . ?
 C38 C39 C40 C41 6(7) . . . . ?
 C39 C40 C41 C37 1(6) . . . . ?
 C39 C40 C41 C42 -180(4) . . . . ?
 C40 C41 C42 P4 116(4) . . . . ?
 C42 P4 C49 C50 -172(2) . . . . ?
 C42 P4 C49 C51 -42(3) . . . . ?
 C42 P4 C52 C53 -58(3) . . . . ?
 C42 P4 C52 C54 173(2) . . . . ?
 C43 P3 C28 C29 171(2) . . . . ?
 C43 P3 C46 C47 -53(3) . . . . ?
 C43 P3 C46 C48 75(3) . . . . ?
 C46 P3 C28 C29 59(3) . . . . ?
 C46 P3 C43 C44 -65(3) . . . . ?
 C46 P3 C43 C45 159(3) . . . . ?
 C49 P4 C42 C41 -170(2) . . . . ?
 C49 P4 C52 C53 49(3) . . . . ?
 C49 P4 C52 C54 -81(2) . . . . ?
 C52 P4 C42 C41 -58(2) . . . . ?
 C52 P4 C49 C50 79(3) . . . . ?
 C52 P4 C49 C51 -152(3) . . . . ?

_shelx_res_file
;
TITL m2341-new_b.res in P1
    m2341-new_b.res
    created by SHELXL-2018/3 at 09:11:40 on 15-Feb-2023
REM Old TITL m2341-new_b.res in Hc
REM SHELXT solution in P1: R1 0.191, Rweak 0.060, Alpha 0.000
REM <I/s> 0.000 for 0 systematic absences, Orientation as input
REM Flack x = 0.480 ( 0.015 ) from 2688 Parsons quotients
REM Formula found by SHELXT: C36 N13 Hd Hb O9
CELL 0.71073 11.1317 11.3506 12.1293 62.825 73.192 87.208
ZERR 1 0.0009 0.0009 0.0006 0.007 0.006 0.006
LATT -1
SFAC C H Ir N P
UNIT 54 84 2 3.56 4
RIGU 0.0001 0.0001 Ir2 Ir1 N4 N3 N2 N1 C35 C33 C34 C37 C36 C38 C39 C40 C41 =
 C42 P4 P3 C32 C31 C30 C29 C28 C46 C47 C48 C43 C44 C45 C52 C54 C53 C49 C50 =
 C51 P1 C21 C19 C20 C1 C2 C7 C6 C5 C4 C3 C17 C16 C18 C8 C9 C26 C25 C14 C13 =
 C27 C15 C22 C23 C24 C12 C11 C10
DFIX -2.1 0.01 H48a H44a
DFIX -2 0.01 H16 H48c
EADP C4 C1
DFIX -3 0.01 C20 Ir1A
DFIX 1.5 0.01 C19 C20
EADP C3 C2
EADP C12 C13
EADP C51 C49
EADP C24 C22
EADP P4 C42
EADP Ir2 P3
DFIX 1.5 0.01 C23 C22

L.S. 16
PLAN  99
SIZE 0.03 0.08 0.15
TEMP -173
CONF
BOND
LIST 6
MORE -1
WPDB -2
BOND $H
WPDB
fmap 2
acta
WPDB -2
TWIN -1 0 0 0 -1 0 0 0 -1 2
OMIT -12 3 -5
OMIT -1 0 0
REM <olex2.extras>
REM <HklSrc "%./m2341-new_b.hkl">
REM </olex2.extras>

WGHT    0.036900   41.339397
EXTI    0.002662
BASF   0.46241
FVAR       0.45047   0.22147
PART 2
IR1   3    0.365152    0.625958    0.516126   -21.00000    0.02713    0.04250 =
         0.03089   -0.00131   -0.01446   -0.02222
AFIX   3
H     2    0.238062    0.650818    0.530306   -21.00000   -1.20000
HA    2    0.465872    0.746428    0.460156   -21.00000   -1.20000
AFIX   0
PART 1
IR1A  3    0.305299    0.687635    0.536209    21.00000    0.03367
AFIX   3
HB    2    0.441178    0.695635    0.501849    21.00000   -1.20000
HC    2    0.256569    0.803515    0.547699    21.00000   -1.20000
AFIX   0
IR2A  3    0.761087    0.293328    0.473196    21.00000    0.01125
AFIX   3
HD    2    0.636067    0.294788    0.478576    21.00000   -1.20000
HE    2    0.824367    0.179588    0.445776    21.00000   -1.20000
AFIX   0
PART 2
IR2   3    0.717477    0.306712    0.484473   -21.00000    0.02944    0.01155 =
         0.00425    0.00084   -0.00499    0.00620
AFIX   3
HF    2    0.836407    0.305602    0.469013   -21.00000   -1.20000
HG    2    0.595897    0.218592    0.571743   -21.00000   -1.20000
AFIX   0
PART 0
P1    5    0.319887    0.726541    0.322905    11.00000    0.04763    0.05005 =
         0.04626   -0.00675   -0.01978   -0.02815
P2    5    0.322877    0.597520    0.725899    11.00000    0.08769    0.05698 =
         0.03650    0.00933   -0.04013   -0.03103
P3    5    0.760852    0.342056    0.273976    11.00000    0.02944    0.01155 =
         0.00425    0.00084   -0.00499    0.00620
PART 2
N3    4    0.508755    0.520035    0.489096   -21.00000    0.03283    0.03141 =
         0.04240    0.00042   -0.00471   -0.02442
N4    4    0.583524    0.448031    0.486946   -21.00000    0.05149    0.05124 =
         0.04425   -0.01083   -0.01650   -0.00508
PART 0
P4    5    0.761614    0.210303    0.679667    11.00000    0.03816    0.02234 =
         0.00640   -0.00167   -0.00816    0.00387
N1    4    0.238030    0.451464    0.583727    11.00000    0.03374    0.04679 =
         0.03694   -0.00249   -0.01310   -0.02726
N2    4    0.837257    0.487239    0.414466    11.00000    0.04973    0.02378 =
         0.00849   -0.00227   -0.01008    0.00276
C1    1    0.161769    0.637929    0.359866    11.00000    0.05340    0.04745 =
         0.04140   -0.00435   -0.02227   -0.02378
AFIX  23
H1A   2    0.098863    0.638845    0.436159    11.00000   -1.20000
H1B   2    0.128661    0.678618    0.284363    11.00000   -1.20000
AFIX   0
C2    1    0.196126    0.495140    0.388613    11.00000    0.04228    0.04639 =
         0.03849   -0.00259   -0.01655   -0.02726
C3    1    0.171256    0.456764    0.299880    11.00000    0.04228    0.04639 =
         0.03849   -0.00259   -0.01655   -0.02726
AFIX  43
H3    2    0.142253    0.516715    0.229558    11.00000   -1.20000
AFIX   0
C4    1    0.192002    0.324904    0.321998    11.00000    0.05340    0.04745 =
         0.04140   -0.00435   -0.02227   -0.02378
AFIX  43
H4    2    0.183392    0.296111    0.262170    11.00000   -1.20000
AFIX   0
C5    1    0.223618    0.241493    0.426995    11.00000    0.05013    0.04734 =
         0.04041   -0.00388   -0.02046   -0.02458
AFIX  43
H5    2    0.223392    0.150846    0.444759    11.00000   -1.20000
AFIX   0
C6    1    0.258441    0.273133    0.517577    11.00000    0.03982    0.04666 =
         0.03662   -0.00223   -0.01422   -0.02730
C7    1    0.233019    0.412884    0.491306    11.00000    0.03596    0.04632 =
         0.03641   -0.00184   -0.01289   -0.02844
C8    1    0.288806    0.184953    0.629247    11.00000    0.04272    0.04734 =
         0.03709   -0.00295   -0.01544   -0.02577
AFIX  23
H8A   2    0.381630    0.185202    0.608357    11.00000   -1.20000
H8B   2    0.253205    0.093891    0.657595    11.00000   -1.20000
AFIX   0
C9    1    0.241724    0.218206    0.734800    11.00000    0.04441    0.04713 =
         0.03697   -0.00278   -0.01535   -0.02576
C10   1    0.188469    0.103787    0.868621    11.00000    0.05235    0.04709 =
         0.03725   -0.00275   -0.01392   -0.02575
AFIX  43
H10   2    0.185127    0.014638    0.881910    11.00000   -1.20000
AFIX   0
C11   1    0.146207    0.131644    0.967738    11.00000    0.05421    0.04708 =
         0.03716   -0.00267   -0.01399   -0.02541
AFIX  43
H11   2    0.125284    0.061232    1.054093    11.00000   -1.20000
AFIX   0
C12   1    0.132444    0.258423    0.947897    11.00000    0.04950    0.04705 =
         0.03705   -0.00268   -0.01424   -0.02583
AFIX  43
H12   2    0.090848    0.275644    1.018591    11.00000   -1.20000
AFIX   0
C13   1    0.180331    0.364673    0.821497    11.00000    0.04950    0.04705 =
         0.03705   -0.00268   -0.01424   -0.02583
C14   1    0.227613    0.341703    0.708063    11.00000    0.04134    0.04705 =
         0.03706   -0.00274   -0.01457   -0.02637
C15   1    0.166254    0.507975    0.803309    11.00000    0.04541    0.04704 =
         0.03691   -0.00267   -0.01482   -0.02597
AFIX  23
H15A  2    0.128404    0.506539    0.888550    11.00000   -1.20000
H15B  2    0.110850    0.552049    0.748217    11.00000   -1.20000
AFIX   0
C16   1    0.417019    0.722930    0.184310    11.00000    0.05390    0.04933 =
         0.05056   -0.00646   -0.02031   -0.02880
AFIX  13
H16   2    0.423294    0.625626    0.213400    11.00000   -1.20000
AFIX   0
C17   1    0.372424    0.767540    0.063912    11.00000    0.04828    0.08092 =
         0.04980   -0.01242   -0.01758   -0.02556
AFIX 137
H17A  2    0.289340    0.721327    0.089290    11.00000   -1.50000
H17B  2    0.432751    0.745971    0.000461    11.00000   -1.50000
H17C  2    0.366702    0.863809    0.025096    11.00000   -1.50000
AFIX   0
C18   1    0.565221    0.783013    0.135057    11.00000    0.05234    0.02863 =
         0.05213    0.00531   -0.02439   -0.02298
AFIX 137
H18A  2    0.569746    0.879656    0.102640    11.00000   -1.50000
H18B  2    0.613524    0.762778    0.065287    11.00000   -1.50000
H18C  2    0.600601    0.742366    0.207932    11.00000   -1.50000
AFIX   0
C19   1    0.294295    0.904628    0.258822    11.00000    0.05641    0.04899 =
         0.05918   -0.00789   -0.02216   -0.02537
AFIX  13
H19   2    0.285012    0.944596    0.169568    11.00000   -1.20000
AFIX   0
C20   1    0.174074    0.891559    0.360897    11.00000    0.06191    0.06102 =
         0.07526   -0.02147   -0.01254   -0.03370
AFIX  33
H20C  2    0.107297    0.843138    0.355446    11.00000   -1.50000
H20A  2    0.186211    0.842685    0.446930    11.00000   -1.50000
H20B  2    0.149980    0.980293    0.347165    11.00000   -1.50000
AFIX   0
C21   1    0.398427    0.981023    0.268661    11.00000    0.06129    0.05255 =
         0.05370   -0.00419   -0.02145   -0.03131
AFIX 137
H21A  2    0.384823    0.958568    0.359839    11.00000   -1.50000
H21B  2    0.395559    1.076941    0.218139    11.00000   -1.50000
H21C  2    0.481018    0.956064    0.234252    11.00000   -1.50000
AFIX   0
C22   1    0.311064    0.748430    0.755769    11.00000    0.08695    0.05438 =
         0.06412    0.01309   -0.05987   -0.01875
AFIX  13
H22   2    0.312499    0.722688    0.845957    11.00000   -1.20000
AFIX   0
C23   1    0.421723    0.847452    0.657281    11.00000    0.08702    0.05100 =
         0.06470    0.01010   -0.05776   -0.01770
AFIX 137
H23A  2    0.499015    0.802261    0.654907    11.00000   -1.50000
H23B  2    0.429259    0.917565    0.681466    11.00000   -1.50000
H23C  2    0.408948    0.887010    0.571341    11.00000   -1.50000
AFIX   0
C24   1    0.191901    0.817619    0.731746    11.00000    0.08695    0.05438 =
         0.06412    0.01309   -0.05987   -0.01875
AFIX  33
H24A  2    0.116791    0.756777    0.793882    11.00000   -1.50000
H24B  2    0.191146    0.897843    0.743029    11.00000   -1.50000
H24C  2    0.191976    0.842241    0.643048    11.00000   -1.50000
AFIX   0
C25   1    0.419281    0.499376    0.822884    11.00000    0.07162    0.03212 =
         0.03808   -0.00964   -0.03463   -0.00178
AFIX  13
H25   2    0.420835    0.414463    0.816582    11.00000   -1.20000
AFIX   0
C26   1    0.564920    0.553945    0.775517    11.00000    0.07349    0.06633 =
         0.04636   -0.03177   -0.02852   -0.01000
AFIX 137
H26A  2    0.601013    0.579529    0.682886    11.00000   -1.50000
H26B  2    0.611087    0.484036    0.825294    11.00000   -1.50000
H26C  2    0.571583    0.631588    0.789450    11.00000   -1.50000
AFIX   0
C27   1    0.383436    0.454426    0.972708    11.00000    0.06817    0.10602 =
         0.04061   -0.02334   -0.03417   -0.00330
AFIX 137
H27A  2    0.394891    0.531502    0.986083    11.00000   -1.50000
H27B  2    0.437910    0.387131    1.010973    11.00000   -1.50000
H27C  2    0.295181    0.416649    1.014388    11.00000   -1.50000
AFIX   0
C28   1    0.918181    0.433330    0.187516    11.00000    0.04345    0.02525 =
         0.00955   -0.00309   -0.01034    0.00726
AFIX  23
H28A  2    0.978462    0.383747    0.234248    11.00000   -1.20000
H28B  2    0.946867    0.440507    0.099244    11.00000   -1.20000
AFIX   0
C29   1    0.916757    0.566893    0.177790    11.00000    0.04566    0.02501 =
         0.00860   -0.00252   -0.01053    0.00713
C30   1    0.944240    0.680734    0.055608    11.00000    0.04914    0.02539 =
         0.00857   -0.00239   -0.00997    0.00814
AFIX  43
H30   2    0.967457    0.665648   -0.018338    11.00000   -1.20000
AFIX   0
C31   1    0.941119    0.809525    0.032204    11.00000    0.05214    0.02526 =
         0.00881   -0.00222   -0.00826    0.00776
AFIX  43
H31   2    0.974104    0.882359   -0.051973    11.00000   -1.20000
AFIX   0
C32   1    0.884098    0.825818    0.144847    11.00000    0.05046    0.02455 =
         0.00874   -0.00196   -0.00772    0.00648
AFIX  43
H32   2    0.864645    0.912152    0.133993    11.00000   -1.20000
AFIX   0
C33   1    0.856957    0.726139    0.264013    11.00000    0.04195    0.02410 =
         0.00877   -0.00206   -0.00835    0.00435
C34   1    0.875327    0.593039    0.283579    11.00000    0.04267    0.02424 =
         0.00847   -0.00217   -0.00929    0.00487
C35   1    0.771522    0.737836    0.386970    11.00000    0.04216    0.02293 =
         0.00848   -0.00141   -0.00829    0.00426
AFIX  23
H35A  2    0.683313    0.701849    0.411155    11.00000   -1.20000
H35B  2    0.772729    0.831433    0.371253    11.00000   -1.20000
AFIX   0
C36   1    0.835647    0.650233    0.496045    11.00000    0.04277    0.02202 =
         0.00897   -0.00188   -0.00891    0.00421
C37   1    0.857182    0.531297    0.505704    11.00000    0.04600    0.02237 =
         0.00886   -0.00231   -0.01042    0.00515
C38   1    0.846246    0.699995    0.574808    11.00000    0.05335    0.02280 =
         0.01228   -0.00382   -0.01473    0.00798
AFIX  43
H38   2    0.824108    0.786460    0.561066    11.00000   -1.20000
AFIX   0
C39   1    0.891957    0.616639    0.678550    11.00000    0.05573    0.02305 =
         0.01318   -0.00424   -0.01626    0.00846
AFIX  43
H39   2    0.911898    0.648802    0.731639    11.00000    0.29724
AFIX   0
C40   1    0.906923    0.489064    0.701056    11.00000    0.04971    0.02250 =
         0.01004   -0.00299   -0.01255    0.00670
AFIX  43
H40   2    0.930214    0.430657    0.776023    11.00000   -1.20000
AFIX   0
C41   1    0.890417    0.439914    0.622114    11.00000    0.03745    0.02207 =
         0.00650   -0.00132   -0.00587    0.00320
C42   1    0.907386    0.298365    0.648808    11.00000    0.03816    0.02234 =
         0.00640   -0.00167   -0.00816    0.00387
AFIX  23
H42A  2    0.938954    0.252821    0.725083    11.00000   -1.20000
H42B  2    0.971147    0.297062    0.573191    11.00000   -1.20000
AFIX   0
C43   1    0.785683    0.196384    0.247070    11.00000    0.04314    0.02669 =
         0.02135   -0.00792   -0.00838    0.00713
AFIX  13
H43   2    0.812023    0.235248    0.150248    11.00000   -1.20000
AFIX   0
C44   1    0.668400    0.102088    0.290710    11.00000    0.04343    0.02636 =
         0.04063   -0.01074   -0.01220    0.00828
AFIX  33
H44A  2    0.599483    0.154217    0.265169    11.00000   -1.50000
H44B  2    0.687663    0.043773    0.249498    11.00000   -1.50000
H44C  2    0.643064    0.047985    0.385365    11.00000   -1.50000
AFIX   0
C45   1    0.895658    0.125610    0.281920    11.00000    0.04344    0.02618 =
         0.02425   -0.00804   -0.00935    0.00702
AFIX 137
H45B  2    0.972817    0.186690    0.230654    11.00000   -1.50000
H45C  2    0.902749    0.049614    0.263433    11.00000   -1.50000
H45A  2    0.883807    0.093934    0.374616    11.00000   -1.50000
AFIX   0
C46   1    0.663524    0.450078    0.172403    11.00000    0.04249    0.02846 =
         0.01720   -0.00187   -0.01033    0.00842
AFIX  13
H46   2    0.662609    0.536102    0.176580    11.00000   -1.20000
AFIX   0
C47   1    0.720594    0.480746    0.033803    11.00000    0.04616    0.02563 =
         0.01724   -0.00157   -0.00954    0.00577
AFIX 137
H47A  2    0.809169    0.515360    0.004501    11.00000   -1.50000
H47B  2    0.674715    0.547588   -0.019573    11.00000   -1.50000
H47C  2    0.715431    0.399460    0.025325    11.00000   -1.50000
AFIX   0
C48   1    0.540064    0.385621    0.235450    11.00000    0.04384    0.03737 =
         0.01727   -0.00046   -0.01067    0.00497
AFIX 137
H48A  2    0.538583    0.305494    0.315843    11.00000   -1.50000
H48B  2    0.513128    0.360689    0.178198    11.00000   -1.50000
H48C  2    0.482667    0.445880    0.256129    11.00000   -1.50000
AFIX   0
C49   1    0.805837    0.037882    0.738862    11.00000    0.03787    0.02168 =
         0.01065   -0.00102   -0.00809    0.00423
AFIX  13
H49   2    0.807954    0.010998    0.829066    11.00000   -1.20000
AFIX   0
C50   1    0.704251   -0.061984    0.755932    11.00000    0.03808    0.03092 =
         0.03289   -0.01491   -0.00697    0.00315
AFIX 137
H50A  2    0.622872   -0.054056    0.809926    11.00000   -1.50000
H50B  2    0.727848   -0.152659    0.798092    11.00000   -1.50000
H50C  2    0.697522   -0.042652    0.670617    11.00000   -1.50000
AFIX   0
C51   1    0.926839    0.009557    0.675319    11.00000    0.03787    0.02168 =
         0.01065   -0.00102   -0.00809    0.00423
AFIX  33
H51A  2    0.993506    0.071593    0.663090    11.00000   -1.50000
H51B  2    0.942034   -0.081874    0.729260    11.00000   -1.50000
H51C  2    0.926894    0.019777    0.590590    11.00000   -1.50000
AFIX   0
C52   1    0.649611    0.223957    0.820432    11.00000    0.03896    0.02435 =
         0.00878   -0.00359   -0.00693    0.00250
AFIX  13
H52   2    0.644619    0.321333    0.791832    11.00000   -1.20000
AFIX   0
C53   1    0.688935    0.169674    0.942377    11.00000    0.04157    0.02481 =
         0.00938   -0.00262   -0.00816    0.00072
AFIX 137
H53A  2    0.700035    0.074939    0.972026    11.00000   -1.50000
H53B  2    0.623684    0.180784    1.010194    11.00000   -1.50000
H53C  2    0.768636    0.218028    0.924148    11.00000   -1.50000
AFIX   0
C54   1    0.529775    0.172097    0.840590    11.00000    0.03944    0.02589 =
         0.01075   -0.00417   -0.00764    0.00210
AFIX 137
H54A  2    0.520280    0.187648    0.757282    11.00000   -1.50000
H54B  2    0.465940    0.215927    0.879428    11.00000   -1.50000
H54C  2    0.518836    0.076246    0.899236    11.00000   -1.50000
AFIX   0
HKLF 4




REM  m2341-new_b.res in P1
REM wR2 = 0.1764, GooF = S = 1.076, Restrained GooF = 1.066 for all data
REM R1 = 0.0794 for 6975 Fo > 4sig(Fo) and 0.0969 for all 8403 data
REM 559 parameters refined using 487 restraints

END

WGHT      0.0368     41.3232

REM Highest difference peak  3.592,  deepest hole -2.574,  1-sigma level  0.241
Q1    1   0.2653  0.7435  0.5592  11.00000  0.05    3.59
Q2    1   0.1846  0.8727  0.4132  11.00000  0.05    1.96
Q3    1   0.6509  0.3448  0.5642  11.00000  0.05    1.73
Q4    1   0.4027  0.5637  0.4732  11.00000  0.05    1.59
Q5    1   1.0061  0.0617  0.4766  11.00000  0.05    1.51
Q6    1   0.3646  0.6932  0.5190  11.00000  0.05    1.49
Q7    1   0.2263  0.8014  0.6096  11.00000  0.05    1.46
Q8    1   0.2559  0.7793  0.3397  11.00000  0.05    1.39
Q9    1   0.6735  0.4425  0.4268  11.00000  0.05    1.30
Q10   1   0.7282  0.4142  0.5336  11.00000  0.05    1.26
Q11   1   0.0857  1.0360  0.3992  11.00000  0.05    1.24
Q12   1   0.7475  0.2613  0.4709  11.00000  0.05    1.23
Q13   1   0.1988  0.9468  0.4352  11.00000  0.05    1.22
Q14   1   0.0555  0.9181  0.4293  11.00000  0.05    1.19
Q15   1   0.6831  0.2872  0.6378  11.00000  0.05    1.18
Q16   1   0.2786  0.5587  0.5284  11.00000  0.05    1.15
Q17   1   1.0426 -0.0404  0.6664  11.00000  0.05    1.13
Q18   1   0.4427  0.6569  0.4283  11.00000  0.05    1.10
Q19   1   0.7805  0.3012  0.3442  11.00000  0.05    1.08
Q20   1   0.7777  0.1618  0.5369  11.00000  0.05    1.08
Q21   1   0.6764  0.4171  0.2546  11.00000  0.05    1.07
Q22   1   0.4758  0.5809  0.4005  11.00000  0.05    1.04
Q23   1   0.5743  0.2023  0.7778  11.00000  0.05    1.01
Q24   1   0.5220  0.7465  0.2269  11.00000  0.05    0.97
Q25   1   0.3830  0.5571  0.7617  11.00000  0.05    0.90
Q26   1   0.8619  0.1380  0.3965  11.00000  0.05    0.90
Q27   1   0.8315  0.1500  0.6541  11.00000  0.05    0.87
Q28   1   0.5523  0.5808  0.4168  11.00000  0.05    0.86
Q29   1   0.8629  0.1206  0.5932  11.00000  0.05    0.86
Q30   1   0.8416  0.3885  0.2152  11.00000  0.05    0.86
Q31   1   0.5032  0.5462  0.5941  11.00000  0.05    0.84
Q32   1   0.2280  0.6845  0.7825  11.00000  0.05    0.84
Q33   1   0.2755  0.8558  0.5328  11.00000  0.05    0.84
Q34   1   0.8959  0.4205  0.3611  11.00000  0.05    0.83
Q35   1   0.3695  0.5909  0.5478  11.00000  0.05    0.83
Q36   1   0.2193  0.9305  0.1878  11.00000  0.05    0.83
Q37   1   0.0451  0.9644  0.3497  11.00000  0.05    0.82
Q38   1   0.8022  0.2881  0.2492  11.00000  0.05    0.82
Q39   1   0.2720  0.6530  0.6415  11.00000  0.05    0.82
Q40   1   0.6976  0.1843  0.4471  11.00000  0.05    0.81
Q41   1   0.9792  0.1780  0.3125  11.00000  0.05    0.81
Q42   1   0.4990  0.4312  0.2847  11.00000  0.05    0.80
Q43   1   0.9137  0.0585  0.5678  11.00000  0.05    0.80
Q44   1   0.5831  0.3842  0.4173  11.00000  0.05    0.80
Q45   1   0.5351  0.6393  0.4506  11.00000  0.05    0.78
Q46   1   0.1424  0.8620  0.7888  11.00000  0.05    0.76
Q47   1   0.7893  0.1604  0.3072  11.00000  0.05    0.75
Q48   1   0.8739  0.2144  0.3215  11.00000  0.05    0.75
Q49   1   0.6039  0.6269  0.4666  11.00000  0.05    0.74
Q50   1   0.4690  0.2994  0.5558  11.00000  0.05    0.74
Q51   1   0.2560  0.6909  0.6679  11.00000  0.05    0.74
Q52   1   0.4990  0.6369  0.3555  11.00000  0.05    0.74
Q53   1   0.5168  0.6211  0.1553  11.00000  0.05    0.73
Q54   1   0.0983  0.8187  0.7376  11.00000  0.05    0.73
Q55   1   0.8874  0.3975  0.4544  11.00000  0.05    0.73
Q56   1   0.8531  0.3645  0.2721  11.00000  0.05    0.73
Q57   1   1.0185  0.0546  0.5796  11.00000  0.05    0.73
Q58   1   0.9011  0.8352  0.0782  11.00000  0.05    0.72
Q59   1   0.6553  0.4436  0.6737  11.00000  0.05    0.72
Q60   1   0.7411  0.6344  0.2745  11.00000  0.05    0.72
Q61   1   0.6641  0.0748  0.3595  11.00000  0.05    0.71
Q62   1   0.7550  0.1787  0.3934  11.00000  0.05    0.71
Q63   1   0.5906  0.4037  0.6406  11.00000  0.05    0.70
Q64   1   0.1734  0.9256  0.5319  11.00000  0.05    0.70
Q65   1   0.8631  0.2237  0.2439  11.00000  0.05    0.70
Q66   1   0.7503  0.5218  0.5196  11.00000  0.05    0.70
Q67   1   0.8079  0.0744  0.4652  11.00000  0.05    0.70
Q68   1   0.6851  0.3577  0.7570  11.00000  0.05    0.70
Q69   1   0.7867  0.6651  0.3835  11.00000  0.05    0.69
Q70   1   0.8685  0.0049  0.7279  11.00000  0.05    0.69
Q71   1   0.0567  0.8406  0.6224  11.00000  0.05    0.68
Q72   1   0.1034  0.0658  1.1975  11.00000  0.05    0.67
Q73   1   0.9013  0.0932  0.3397  11.00000  0.05    0.67
Q74   1   0.2990  0.8424  0.0869  11.00000  0.05    0.67
Q75   1   0.3463  0.5255  1.0080  11.00000  0.05    0.67
Q76   1   0.4624  0.7023  0.1715  11.00000  0.05    0.67
Q77   1   0.0862  0.8555  0.5335  11.00000  0.05    0.66
Q78   1   0.7234  0.2537  0.7893  11.00000  0.05    0.66
Q79   1   0.9812  0.0579  0.2891  11.00000  0.05    0.66
Q80   1   0.1438  0.6169  0.7395  11.00000  0.05    0.66
Q81   1   0.0699  0.9618  0.2261  11.00000  0.05    0.65
Q82   1   0.3135  0.4379  0.9868  11.00000  0.05    0.65
Q83   1   0.1051  0.0369  0.4843  11.00000  0.05    0.65
Q84   1   0.2517  0.9564  0.3289  11.00000  0.05    0.65
Q85   1   0.4232  0.5406  0.6727  11.00000  0.05    0.65
Q86   1   0.3999  0.6427  0.3594  11.00000  0.05    0.65
Q87   1   0.2171  0.9137  0.2749  11.00000  0.05    0.64
Q88   1   0.7176  0.0065  0.7583  11.00000  0.05    0.64
Q89   1   0.2090  0.5396  0.5584  11.00000  0.05    0.64
Q90   1   0.7741  0.5033  0.5369  11.00000  0.05    0.64
Q91   1   0.7627  0.2380  0.2113  11.00000  0.05    0.64
Q92   1   0.9163 -0.1295  0.7178  11.00000  0.05    0.63
Q93   1   0.9377  0.4238  0.4489  11.00000  0.05    0.63
Q94   1   0.3453  0.7745  0.2240  11.00000  0.05    0.63
Q95   1   0.9432  0.2416  0.5824  11.00000  0.05    0.63
Q96   1   0.9763 -0.0344  0.6400  11.00000  0.05    0.63
Q97   1   0.6936  0.7823  0.4429  11.00000  0.05    0.63
Q98   1   0.3087  0.6603  0.7444  11.00000  0.05    0.62
Q99   1   0.2455  0.5638  0.7387  11.00000  0.05    0.62
;
_shelx_res_checksum                93723
_shelx_hkl_file
;
 -13  -3  -6   95.88   62.69
 -13  -3  -6   43.03   60.61
 -13  -3  -6   15.95   57.82
 -13  -3  -5   14.29   66.64
 -13  -3  -5   16.29   61.62
 -13  -3  -5    0.59   58.35
 -13  -2  -6  242.90   61.70
 -13  -2  -6  172.24   59.95
 -13  -2  -5   70.10   66.17
 -13  -2  -5   97.09   60.43
 -13  -2  -5   37.52   57.52
 -13  -2  -4  155.86   61.63
 -13  -2  -4   86.81   59.74
 -13  -2  -3  269.71   64.68
 -13  -2  -3  223.37   60.68
 -13  -1  -6  108.76   61.56
 -13  -1  -6   90.02   57.98
 -13  -1  -5  149.98   60.88
 -13  -1  -5   51.35   57.18
 -13  -1  -4  109.58   61.09
 -13  -1  -4   70.23   57.10
 -13  -1  -3  259.55   62.87
 -13  -1  -3  214.10   59.46
 -13  -1  -2  195.92   59.51
 -13   0  -6  -63.86   63.44
 -13   0  -6   47.41   55.75
 -13   0  -5   92.50   62.30
 -13   0  -5   62.59   56.00
 -13   0  -4   24.81   61.06
 -13   0  -4   29.64   55.54
 -13   0  -3   20.37   61.51
 -13   0  -3   52.09   57.69
 -13   0  -2   13.53   57.74
 -13   1  -5  118.34   65.71
 -13   1  -5   91.80   56.39
 -13   1  -4   31.97   63.26
 -13   1  -4   30.82   56.61
 -13   1  -3  119.46   66.21
 -13   1  -2  110.23   72.49
 -12  -6  -8  194.56   65.18
 -12  -6  -8  176.69   65.71
 -12  -6  -7  308.30   59.63
 -12  -6  -7  296.73   66.57
 -12  -6  -7  190.69   63.63
 -12  -6  -6  113.26   62.50
 -12  -6  -6  172.35   63.48
 -12  -6  -6  231.62   62.53
 -12  -6  -5   81.19   66.16
 -12  -6  -5  193.80   62.47
 -12  -6  -5  183.18   60.11
 -12  -5  -9  121.08   47.65
 -12  -5  -9   87.07   62.75
 -12  -5  -9  149.25   62.44
 -12  -5  -8   28.91   60.41
 -12  -5  -8   16.11   57.98
 -12  -5  -7  120.23   56.28
 -12  -5  -7   41.53   59.19
 -12  -5  -7   32.22   57.28
 -12  -5  -6    3.52   61.11
 -12  -5  -6  185.06   60.31
 -12  -5  -6  165.28   58.15
 -12  -5  -5    7.22   62.62
 -12  -5  -5   85.98   60.28
 -12  -5  -5  163.57   57.66
 -12  -5  -4   21.54   64.10
 -12  -5  -4   -5.08   60.47
 -12  -5  -4   77.01   54.75
 -12  -5  -3    7.72   65.45
 -12  -5  -3   32.68   59.75
 -12  -5  -3   67.31   55.30
 -12  -4  -9  168.89   46.90
 -12  -4  -9  235.68   62.90
 -12  -4  -9  189.92   59.13
 -12  -4  -8   96.20   45.88
 -12  -4  -8   84.85   60.42
 -12  -4  -8  151.02   57.11
 -12  -4  -7   92.29   47.10
 -12  -4  -7  104.84   60.07
 -12  -4  -7  115.88   55.49
 -12  -4  -6  111.06   61.64
 -12  -4  -6  230.67   60.45
 -12  -4  -6  276.44   58.02
 -12  -4  -5  271.44   60.03
 -12  -4  -5  257.23   57.05
 -12  -4  -4  272.39   61.61
 -12  -4  -4  302.32   58.72
 -12  -4  -3  231.94   60.19
 -12  -4  -3  284.91   57.26
 -12  -3  -9  161.53   44.40
 -12  -3  -9  296.60   62.87
 -12  -3  -9  221.41   57.68
 -12  -3  -8  180.68   59.69
 -12  -3  -8  221.17   56.19
 -12  -3  -7   81.85   57.56
 -12  -3  -7  114.76   53.73
 -12  -3  -6   81.15   56.66
 -12  -3  -6  121.27   58.12
 -12  -3  -6   68.43   52.85
 -12  -3  -5   28.42   60.43
 -12  -3  -5  155.25   58.49
 -12  -3  -5  118.22   55.37
 -12  -3  -4  394.71   63.12
 -12  -3  -4  216.93   57.71
 -12  -3  -3  318.83   61.41
 -12  -3  -3  274.37   57.49
 -12  -3  -2   85.20   54.50
 -12  -2  -9   92.15   62.27
 -12  -2  -9   95.70   55.13
 -12  -2  -8   80.80   58.44
 -12  -2  -8   88.46   54.91
 -12  -2  -7   27.19   55.46
 -12  -2  -7   25.04   52.77
 -12  -2  -6   70.65   57.08
 -12  -2  -6   54.94   55.00
 -12  -2  -6   68.96   53.12
 -12  -2  -5   34.75   54.66
 -12  -2  -5    2.10   53.06
 -12  -2  -4   -5.85   56.94
 -12  -2  -4   42.89   53.81
 -12  -2  -3   -6.94   56.41
 -12  -2  -3   13.51   53.31
 -12  -2  -2   18.60   53.87
 -12  -2  -1   64.78   53.29
 -12  -2   0   10.98   70.55
 -12  -2   0   30.72   57.59
 -12  -1  -9   43.84   62.81
 -12  -1  -8  113.38   54.94
 -12  -1  -8   94.32   60.46
 -12  -1  -8   70.89   52.70
 -12  -1  -7  155.87   58.49
 -12  -1  -7  138.12   58.68
 -12  -1  -7  135.48   54.42
 -12  -1  -6  118.75   58.57
 -12  -1  -6   10.21   54.42
 -12  -1  -6   72.68   52.70
 -12  -1  -5   23.79   54.30
 -12  -1  -5   94.91   52.29
 -12  -1  -4  146.07   57.13
 -12  -1  -4   86.25   52.36
 -12  -1  -3  189.32   57.32
 -12  -1  -3  109.81   53.87
 -12  -1  -2  183.17   53.62
 -12  -1  -1   66.21   66.78
 -12  -1  -1   64.04   54.14
 -12  -1   0  113.50   70.52
 -12  -1   0   47.21   57.27
 -12  -1   0   37.39   54.78
 -12  -1   1  211.95   59.85
 -12  -1   1   74.47   76.81
 -12   0  -8  276.41   57.22
 -12   0  -8  433.23   70.27
 -12   0  -7  279.41   60.11
 -12   0  -7  300.83   64.35
 -12   0  -7  259.57   55.47
 -12   0  -6  117.48   58.36
 -12   0  -6   79.01   58.10
 -12   0  -6  101.99   50.65
 -12   0  -5  105.45   59.14
 -12   0  -5  102.88   56.72
 -12   0  -5   79.32   50.74
 -12   0  -4  136.98   57.39
 -12   0  -4  158.49   52.70
 -12   0  -3   45.35   63.13
 -12   0  -3  151.96   57.30
 -12   0  -3  231.15   54.99
 -12   0  -2   49.91   67.06
 -12   0  -1   15.60   68.19
 -12   0   0   41.20   54.98
 -12   0   0   29.57   67.97
 -12   0   1   35.54   55.87
 -12   0   1    6.75   70.92
 -12   1  -8  115.98   54.79
 -12   1  -8  132.14   64.56
 -12   1  -7  113.96   56.60
 -12   1  -7  104.81   63.43
 -12   1  -7   59.42   52.18
 -12   1  -6   62.19   58.10
 -12   1  -6   28.62   60.92
 -12   1  -6   45.81   50.15
 -12   1  -5    3.22   58.73
 -12   1  -5    7.96   50.04
 -12   1  -4  -14.21   58.95
 -12   1  -3   -3.56   57.62
 -12   1  -3   47.86   61.76
 -12   1  -2  -62.46   58.23
 -12   1  -2   52.18   65.18
 -12   1  -1  -35.18   68.80
 -12   1   0    4.94   57.28
 -12   1   0  -26.13   71.17
 -12   1   1   48.77   57.02
 -12   1   1   32.70   70.04
 -12   2  -7  135.46   64.80
 -12   2  -6  133.21   63.59
 -12   2  -6   76.37   51.21
 -12   2  -5   31.43   59.25
 -12   2  -4  115.34   60.92
 -12   2  -3  226.62   62.59
 -12   2  -2  331.23   64.86
 -12   2  -2  175.30   65.59
 -12   2  -1   73.62   67.22
 -12   2   0  120.69   61.13
 -12   2   0   22.77   70.16
 -12   2   1   44.39   60.03
 -12   2   1  -14.21   72.58
 -12   2   2   91.92   61.31
 -12   2   2   57.62   74.80
 -12   3  -6  145.69   66.45
 -12   3  -5 1892.04   87.91
 -12   3  -4   91.63   62.18
 -12   3  -3  116.39   60.55
 -12   3  -2  203.51   62.11
 -12   3   0  100.10   61.43
 -12   3   0   17.28   67.33
 -12   3   1   92.47   60.99
 -12   3   1   37.57   70.59
 -12   4  -4   89.88   61.45
 -12   4  -3   27.03   61.40
 -12   4  -2   23.69   61.12
 -12   4   0  -30.60   61.36
 -12   4   0   59.34   66.06
 -12   4   1   37.19   63.13
 -12   4   1    7.89   69.72
 -12   5  -2   64.96   36.93
 -12   5  -2   59.81   62.49
 -12   5  -1   51.21   29.85
 -11  -8  -7  293.98   55.70
 -11  -8  -7  446.50   66.72
 -11  -8  -7  308.65   67.85
 -11  -7 -10   75.90   47.52
 -11  -7 -10  123.77   62.63
 -11  -7 -10   76.69   63.89
 -11  -7  -9  117.65   50.26
 -11  -7  -9  141.73   61.94
 -11  -7  -9   64.07   62.47
 -11  -7  -8  209.90   48.56
 -11  -7  -8    9.09   59.61
 -11  -7  -8   48.10   62.10
 -11  -7  -7   11.78   53.73
 -11  -7  -7   45.08   59.86
 -11  -7  -7   38.84   60.94
 -11  -7  -6  162.14   53.76
 -11  -7  -6   20.09   58.84
 -11  -7  -6  -10.20   59.45
 -11  -7  -5   17.99   55.15
 -11  -7  -5   50.51   57.77
 -11  -7  -5   -8.18   58.45
 -11  -7  -4  -25.11   47.01
 -11  -7  -4   13.99   59.19
 -11  -7  -4   83.40   58.73
 -11  -6 -10   40.07   45.46
 -11  -6 -10  147.25   61.09
 -11  -6 -10   53.47   62.51
 -11  -6  -9   84.63   46.94
 -11  -6  -9  101.09   58.92
 -11  -6  -9   96.88   60.54
 -11  -6  -8  263.52   49.51
 -11  -6  -8  264.97   62.77
 -11  -6  -8  264.32   61.39
 -11  -6  -7  661.43   57.42
 -11  -6  -7  588.80   55.80
 -11  -6  -7  583.08   64.97
 -11  -6  -7  561.29   65.55
 -11  -6  -6  608.86   60.40
 -11  -6  -6  548.45   62.07
 -11  -6  -6  509.86   63.61
 -11  -6  -5  381.24   61.60
 -11  -6  -5  320.21   59.66
 -11  -6  -4  351.67   60.60
 -11  -6  -4  314.57   57.74
 -11  -6  -3  136.19   67.64
 -11  -6  -3  473.73   62.50
 -11  -6  -2  371.41   37.03
 -11  -6  -2  338.46   58.66
 -11  -5 -11  408.52   43.27
 -11  -5 -11  387.51   66.25
 -11  -5 -10  391.97   46.44
 -11  -5 -10  552.67   63.93
 -11  -5 -10  389.72   64.57
 -11  -5  -9  305.96   46.60
 -11  -5  -9  461.06   62.27
 -11  -5  -9  469.84   61.94
 -11  -5  -8  354.88   49.12
 -11  -5  -8  518.87   62.04
 -11  -5  -8  459.44   60.10
 -11  -5  -7  371.58   52.60
 -11  -5  -7  215.34   48.38
 -11  -5  -7  247.68   58.11
 -11  -5  -7  297.92   57.98
 -11  -5  -6  236.91   56.15
 -11  -5  -6  300.58   50.46
 -11  -5  -6  321.04   58.32
 -11  -5  -6  241.88   56.96
 -11  -5  -5  425.44   58.96
 -11  -5  -5  363.86   57.74
 -11  -5  -4  415.52   58.89
 -11  -5  -4  398.31   56.60
 -11  -5  -3   32.11   60.21
 -11  -5  -3  132.70   56.17
 -11  -5  -3  128.12   52.68
 -11  -5  -2   70.89   55.56
 -11  -5  -1   47.68   51.74
 -11  -4 -11   28.44   35.97
 -11  -4 -10  142.19   40.78
 -11  -4 -10  164.46   59.21
 -11  -4 -10  139.44   56.89
 -11  -4  -9  134.73   43.29
 -11  -4  -9   93.47   56.68
 -11  -4  -9  166.74   55.13
 -11  -4  -8   21.33   41.84
 -11  -4  -8  -29.43   56.41
 -11  -4  -8   56.21   52.48
 -11  -4  -7  103.52   44.15
 -11  -4  -7   64.06   54.98
 -11  -4  -7   94.40   52.55
 -11  -4  -6  162.19   53.99
 -11  -4  -6  161.19   45.35
 -11  -4  -6  155.57   54.04
 -11  -4  -6  150.20   51.72
 -11  -4  -5    8.87   56.34
 -11  -4  -5  151.57   53.64
 -11  -4  -5   42.81   48.48
 -11  -4  -4   48.84   54.91
 -11  -4  -4  114.43   53.95
 -11  -4  -4  113.00   50.78
 -11  -4  -3   -1.61   53.02
 -11  -4  -3   54.02   49.54
 -11  -4  -2   91.44   55.18
 -11  -4  -2   82.42   51.01
 -11  -4   0   98.06   54.77
 -11  -4   0  150.45   52.48
 -11  -3 -11  210.76   35.93
 -11  -3 -10  116.92   38.88
 -11  -3 -10  187.94   58.23
 -11  -3 -10  204.70   56.01
 -11  -3  -9  153.22   40.06
 -11  -3  -9  130.32   55.87
 -11  -3  -9  169.81   54.74
 -11  -3  -8  252.41   57.28
 -11  -3  -8  307.09   54.01
 -11  -3  -7  308.27   57.48
 -11  -3  -7  335.72   52.03
 -11  -3  -6  598.55   56.92
 -11  -3  -6  475.15   58.80
 -11  -3  -6  466.15   54.31
 -11  -3  -5  311.28   53.57
 -11  -3  -5  213.53   51.12
 -11  -3  -4  220.93   53.29
 -11  -3  -4  212.05   51.74
 -11  -3  -3  242.63   54.40
 -11  -3  -3  172.79   51.56
 -11  -3  -2  312.81   56.79
 -11  -3  -2  241.62   52.63
 -11  -3  -1  231.10   52.31
 -11  -3   0   76.49   67.92
 -11  -3   0  115.49   54.13
 -11  -3   1   94.54   75.66
 -11  -3   1  280.70   56.74
 -11  -3   1  251.51   52.65
 -11  -2 -10  183.41   62.94
 -11  -2  -9  247.43   58.90
 -11  -2  -9  269.67   54.10
 -11  -2  -8  492.58   61.21
 -11  -2  -8  528.34   56.56
 -11  -2  -7  442.08   57.97
 -11  -2  -7  417.48   54.25
 -11  -2  -6  296.67   54.62
 -11  -2  -6  274.96   53.10
 -11  -2  -6  308.26   53.31
 -11  -2  -5  237.93   53.05
 -11  -2  -5  132.09   51.53
 -11  -2  -4  134.00   52.16
 -11  -2  -4  135.00   50.99
 -11  -2  -3  287.73   57.96
 -11  -2  -3  399.64   56.91
 -11  -2  -3  373.53   51.63
 -11  -2  -2  111.91   54.12
 -11  -2  -2  188.18   50.46
 -11  -2  -1   18.20   60.25
 -11  -2  -1   70.11   47.05
 -11  -2   0   -1.70   64.47
 -11  -2   1   56.92   69.78
 -11  -2   1  192.30   53.63
 -11  -2   2   86.18   73.01
 -11  -2   2  199.40   55.66
 -11  -2   2  115.42   49.96
 -11  -1 -10  136.41   63.09
 -11  -1 -10   48.50   52.59
 -11  -1  -9  203.27   62.46
 -11  -1  -8  114.62   50.92
 -11  -1  -8  182.17   58.70
 -11  -1  -8  207.02   51.68
 -11  -1  -7   19.04   52.20
 -11  -1  -7  -31.58   54.13
 -11  -1  -7   64.10   49.02
 -11  -1  -6   37.09   53.78
 -11  -1  -6  -64.06   52.04
 -11  -1  -6   50.87   48.62
 -11  -1  -5  -22.78   47.67
 -11  -1  -5   41.02   46.07
 -11  -1  -4    6.60   49.07
 -11  -1  -4   13.90   45.71
 -11  -1  -3  -28.12   55.90
 -11  -1  -3   19.43   54.58
 -11  -1  -3   38.70   50.42
 -11  -1  -3   -5.85   47.30
 -11  -1  -2   92.93   59.36
 -11  -1  -2  -32.81   55.24
 -11  -1  -2  -37.86   52.77
 -11  -1  -2   42.51   48.85
 -11  -1  -1    8.71   57.50
 -11  -1  -1   33.25   47.55
 -11  -1   0    0.55   62.66
 -11  -1   0   30.70   47.82
 -11  -1   1   -1.18   64.10
 -11  -1   1   66.86   52.21
 -11  -1   2    6.38   67.96
 -11  -1   2  128.85   55.02
 -11  -1   2   33.18   52.22
 -11  -1   3   -7.56   70.15
 -11  -1   3   69.57   53.85
 -11  -1   3    9.69   50.26
 -11   0 -10  172.76   65.86
 -11   0 -10   60.94   52.09
 -11   0  -9   41.53   46.71
 -11   0  -9   46.92   60.76
 -11   0  -9    1.83   49.25
 -11   0  -8   71.19   49.71
 -11   0  -8   70.07   59.84
 -11   0  -7   69.99   51.29
 -11   0  -7  111.22   57.17
 -11   0  -7  134.35   49.98
 -11   0  -6  122.00   51.72
 -11   0  -6  110.81   53.41
 -11   0  -6  125.25   47.78
 -11   0  -5    8.51   50.45
 -11   0  -5  135.66   48.19
 -11   0  -4   52.30   50.58
 -11   0  -4  112.85   46.88
 -11   0  -3  256.32   56.09
 -11   0  -3  143.61   51.11
 -11   0  -3  215.59   55.47
 -11   0  -2   55.16   59.36
 -11   0  -2  105.89   50.26
 -11   0  -2  146.57   55.41
 -11   0  -1   79.43   61.00
 -11   0   0   18.44   62.21
 -11   0   1   31.25   64.12
 -11   0   1  103.84   52.38
 -11   0   2   57.42   67.11
 -11   0   2  175.41   54.57
 -11   0   3   97.46   70.76
 -11   0   3  191.59   53.58
 -11   1  -9  109.12   47.61
 -11   1  -9  148.94   63.77
 -11   1  -9   57.12   49.88
 -11   1  -8  212.66   52.59
 -11   1  -8  222.42   64.23
 -11   1  -7  347.60   55.80
 -11   1  -7  378.73   63.19
 -11   1  -7  339.39   50.65
 -11   1  -6  135.60   53.49
 -11   1  -6  139.62   57.50
 -11   1  -6  194.14   49.05
 -11   1  -5  107.98   54.28
 -11   1  -5  110.13   54.26
 -11   1  -4   69.05   52.68
 -11   1  -3  155.06   55.50
 -11   1  -3  251.32   56.31
 -11   1  -2  157.26   60.38
 -11   1  -2  283.25   53.77
 -11   1  -2  283.58   57.44
 -11   1  -1   19.64   60.84
 -11   1   0   14.79   61.95
 -11   1   1  -57.66   50.69
 -11   1   1  -33.22   61.71
 -11   1   2   28.43   51.02
 -11   1   2    4.90   63.85
 -11   1   3   73.11   53.51
 -11   1   3   16.16   66.24
 -11   2  -8  115.01   64.63
 -11   2  -8   57.21   48.98
 -11   2  -7  119.32   61.01
 -11   2  -6   70.07   56.76
 -11   2  -6   56.93   47.84
 -11   2  -5   32.98   54.35
 -11   2  -4   48.66   53.50
 -11   2  -3   59.03   54.77
 -11   2  -2  -24.31   54.52
 -11   2  -2   69.47   58.76
 -11   2  -1    3.15   53.08
 -11   2  -1   11.17   59.68
 -11   2   0  -18.79   64.55
 -11   2   1   -4.52   56.51
 -11   2   1   10.52   63.16
 -11   2   2  -21.71   55.49
 -11   2   2   12.17   64.17
 -11   2   3   25.10   56.08
 -11   2   3   17.53   67.08
 -11   2   4    5.59   55.08
 -11   2   4   25.89   68.92
 -11   3  -7   55.31   61.54
 -11   3  -7   46.14   48.95
 -11   3  -6  151.46   61.00
 -11   3  -5  100.44   57.19
 -11   3  -4  -17.06   53.70
 -11   3  -3   94.04   56.33
 -11   3  -2  125.55   56.88
 -11   3  -1  222.38   57.43
 -11   3  -1  184.23   61.26
 -11   3   0   96.30   62.22
 -11   3   1  112.49   58.33
 -11   3   1   45.96   65.18
 -11   3   2  142.46   57.05
 -11   3   2    9.98   67.33
 -11   3   3  239.01   58.15
 -11   3   3   91.38   71.09
 -11   3   4  200.67   57.15
 -11   3   4   91.27   72.86
 -11   4  -6  219.45   63.67
 -11   4  -6  242.81   54.25
 -11   4  -5  163.68   60.00
 -11   4  -5  128.21   49.00
 -11   4  -4   41.22   55.71
 -11   4  -4   92.95   44.00
 -11   4  -3  192.68   58.37
 -11   4  -3  158.04   38.89
 -11   4  -2  106.72   57.18
 -11   4  -2  136.16   33.37
 -11   4  -1  232.56   59.47
 -11   4   0  126.83   62.91
 -11   4   1  142.95   56.58
 -11   4   1  126.55   65.98
 -11   4   2   44.76   54.95
 -11   4   2    1.25   67.55
 -11   4   3   74.45   55.75
 -11   4   3  -13.36   72.59
 -11   4   4   54.28   54.66
 -11   4   4   82.49   74.12
 -11   5  -5   71.92   60.67
 -11   5  -5   28.47   49.27
 -11   5  -4   54.67   58.84
 -11   5  -4    2.80   45.24
 -11   5  -3   68.15   58.04
 -11   5  -3   62.61   43.55
 -11   5  -2    3.59   56.40
 -11   5  -2   47.27   37.76
 -11   5  -1    5.08   34.85
 -11   5   0   46.28   30.15
 -11   5   1   18.98   23.78
 -11   5   1   37.40   56.88
 -11   5   1   52.99   65.26
 -11   5   2   35.56   55.54
 -11   5   2   45.94   68.59
 -11   5   3   12.72   55.53
 -11   5   3   15.93   71.11
 -11   6  -3   65.58   59.29
 -11   6  -3  -11.24   44.07
 -11   6  -2   -5.05   58.60
 -11   6  -2   18.42   42.43
 -11   6  -1  143.26   41.40
 -11   6   0   71.90   36.52
 -11   6   1  109.20   59.68
 -11   6   1   32.28   33.12
 -11   6   2   57.88   29.66
 -11   6   2   36.13   58.46
 -11   6   2   41.54   68.62
 -11   6   3   27.71   26.58
 -11   6   3   25.62   58.16
 -11   6   3   59.58   74.45
 -10  -9  -9   -7.27   60.94
 -10  -9  -9   37.79   64.09
 -10  -9  -8   40.70   63.05
 -10  -9  -8   20.84   41.74
 -10  -9  -8   34.51   70.64
 -10  -9  -8  -22.33   59.66
 -10  -9  -7  -42.08   63.06
 -10  -9  -7  -23.56   71.91
 -10  -9  -7  113.56   67.07
 -10  -9  -7   46.32   44.31
 -10  -9  -7   35.77   60.54
 -10  -9  -6  -17.00   59.94
 -10  -9  -6   64.63   63.41
 -10  -9  -6    4.67   59.19
 -10  -9  -6   68.49   60.29
 -10  -9  -6   39.28   49.31
 -10  -9  -5   -7.58   56.43
 -10  -9  -5  -27.82   53.50
 -10  -9  -5   19.39   55.09
 -10  -8 -10  118.16   47.60
 -10  -8 -10  116.66   58.79
 -10  -8 -10   81.22   62.62
 -10  -8  -9  216.97   50.69
 -10  -8  -9  196.28   60.62
 -10  -8  -9  224.93   63.43
 -10  -8  -8  478.06   65.10
 -10  -8  -8  376.36   63.89
 -10  -8  -8  395.99   44.92
 -10  -8  -7  579.67   67.35
 -10  -8  -7  636.43   52.35
 -10  -8  -7  610.45   70.60
 -10  -8  -7  673.52   65.90
 -10  -8  -6  254.50   61.20
 -10  -8  -6  234.10   62.38
 -10  -8  -6  266.29   61.03
 -10  -8  -6  297.26   52.57
 -10  -8  -6  295.04   60.41
 -10  -8  -5  214.11   60.11
 -10  -8  -5  203.67   58.77
 -10  -8  -5  247.19   59.02
 -10  -8  -5  206.28   54.39
 -10  -8  -5  188.00   55.67
 -10  -8  -4  302.88   52.86
 -10  -8  -4  404.74   51.59
 -10  -8  -4  342.12   62.46
 -10  -8  -3  854.29   67.46
 -10  -8  -3  865.15   56.24
 -10  -7 -11  487.86   48.26
 -10  -7 -11  498.80   67.75
 -10  -7 -10  249.93   45.81
 -10  -7 -10  321.93   59.73
 -10  -7 -10  346.69   62.93
 -10  -7  -9  380.68   49.78
 -10  -7  -9  351.87   59.38
 -10  -7  -9  408.86   64.32
 -10  -7  -8  656.23   45.60
 -10  -7  -8  449.91   52.95
 -10  -7  -8  595.42   63.88
 -10  -7  -8  467.78   65.03
 -10  -7  -7  720.65   53.85
 -10  -7  -7  738.21   57.61
 -10  -7  -7  808.54   65.71
 -10  -7  -7  725.78   67.65
 -10  -7  -6  519.29   63.99
 -10  -7  -6  497.36   60.46
 -10  -7  -6  524.28   50.99
 -10  -7  -6  444.23   60.08
 -10  -7  -5  211.07   57.31
 -10  -7  -5  325.29   54.48
 -10  -7  -5  283.68   52.23
 -10  -7  -5  240.75   55.46
 -10  -7  -5  294.27   57.24
 -10  -7  -4  245.45   57.57
 -10  -7  -4  269.08   50.55
 -10  -7  -4  257.24   57.32
 -10  -7  -4  311.97   50.33
 -10  -7  -4   89.29   56.76
 -10  -7  -3  192.72   46.84
 -10  -7  -3  243.83   44.49
 -10  -7  -3  102.74   56.67
 -10  -7  -2   52.32   54.24
 -10  -7  -2  136.56   42.63
 -10  -7  -2  135.07   57.45
 -10  -7  -1   20.44   53.27
 -10  -6 -12  178.88   38.44
 -10  -6 -12  176.16   58.52
 -10  -6 -11  141.12   40.43
 -10  -6 -11  124.78   61.48
 -10  -6 -10   88.56   42.25
 -10  -6 -10  113.04   54.59
 -10  -6 -10   74.55   58.69
 -10  -6  -9   88.19   43.28
 -10  -6  -9  125.84   55.51
 -10  -6  -9  104.36   57.34
 -10  -6  -8   67.03   42.79
 -10  -6  -8   10.42   53.54
 -10  -6  -8   42.24   53.17
 -10  -6  -7   54.56   44.19
 -10  -6  -7   52.26   44.73
 -10  -6  -7   27.34   51.47
 -10  -6  -7  -13.74   54.20
 -10  -6  -6   82.06   45.99
 -10  -6  -6   96.80   52.07
 -10  -6  -6   73.28   51.11
 -10  -6  -5   39.20   48.48
 -10  -6  -5   32.59   45.64
 -10  -6  -5   57.91   50.41
 -10  -6  -5   19.50   50.91
 -10  -6  -4   26.84   50.30
 -10  -6  -4   60.43   51.84
 -10  -6  -4    4.50   43.43
 -10  -6  -4   36.96   50.83
 -10  -6  -3   28.63   48.67
 -10  -6  -3   44.54   43.12
 -10  -6  -3   21.24   52.61
 -10  -6  -3   -0.88   55.41
 -10  -6  -3   93.87   41.53
 -10  -6  -2  271.81   41.96
 -10  -6  -2  356.42   39.61
 -10  -6  -2  294.75   57.84
 -10  -6  -1  242.26   51.11
 -10  -6   0  113.86   54.44
 -10  -6   0   73.31   49.85
 -10  -5 -12   84.07   33.05
 -10  -5 -12   62.79   55.97
 -10  -5 -11  185.85   37.38
 -10  -5 -11  138.46   58.59
 -10  -5 -10  160.60   39.96
 -10  -5 -10   98.37   54.80
 -10  -5 -10  125.90   57.97
 -10  -5  -9   89.62   40.94
 -10  -5  -9   99.59   53.32
 -10  -5  -9   27.42   54.06
 -10  -5  -8  188.97   42.68
 -10  -5  -8  157.25   52.36
 -10  -5  -8  175.41   53.32
 -10  -5  -7  749.49   49.66
 -10  -5  -7  550.94   49.69
 -10  -5  -7  659.70   57.82
 -10  -5  -7  629.93   57.91
 -10  -5  -6  670.59   53.12
 -10  -5  -6  612.59   56.46
 -10  -5  -6  674.25   58.68
 -10  -5  -5  427.78   49.76
 -10  -5  -5  292.41   45.94
 -10  -5  -5  324.90   51.08
 -10  -5  -5  298.13   51.12
 -10  -5  -4  416.14   55.97
 -10  -5  -4  369.38   49.37
 -10  -5  -4  382.86   54.32
 -10  -5  -4  354.62   51.85
 -10  -5  -3  307.72   49.74
 -10  -5  -3  427.37   54.78
 -10  -5  -3  349.05   50.67
 -10  -5  -2  429.26   53.06
 -10  -5  -2  466.47   55.49
 -10  -5  -2  377.91   35.00
 -10  -5  -1  394.83   33.09
 -10  -5  -1  352.59   34.16
 -10  -5   0  332.89   51.87
 -10  -5   1  263.97   55.72
 -10  -5   1  182.51   47.90
 -10  -4 -12  668.61   64.91
 -10  -4 -12  535.33   65.72
 -10  -4 -11  342.71   36.49
 -10  -4 -10  279.21   38.07
 -10  -4 -10  399.33   57.08
 -10  -4 -10  355.65   59.10
 -10  -4  -9  377.33   42.41
 -10  -4  -9  482.44   58.31
 -10  -4  -9  442.48   56.75
 -10  -4  -8  277.01   41.61
 -10  -4  -8  285.25   53.47
 -10  -4  -8  296.52   51.53
 -10  -4  -7  189.69   41.35
 -10  -4  -7  253.16   51.49
 -10  -4  -7  227.49   50.09
 -10  -4  -6  526.06   51.46
 -10  -4  -6  469.74   53.70
 -10  -4  -6  345.00   53.04
 -10  -4  -5  372.76   50.80
 -10  -4  -5  413.85   51.96
 -10  -4  -5  359.56   50.77
 -10  -4  -4  407.90   47.01
 -10  -4  -4  344.26   51.64
 -10  -4  -4  407.58   51.35
 -10  -4  -3  216.31   44.30
 -10  -4  -3  201.34   50.41
 -10  -4  -3  233.41   48.01
 -10  -4  -2  144.84   44.36
 -10  -4  -2   51.45   48.51
 -10  -4  -2   76.31   44.68
 -10  -4  -1   79.42   48.76
 -10  -4   0   67.47   47.41
 -10  -4   1  242.23   53.86
 -10  -4   1   68.30   46.22
 -10  -4   2  104.23   52.37
 -10  -4   2   52.47   45.18
 -10  -3 -12  302.10   65.75
 -10  -3 -12  216.54   60.96
 -10  -3 -11   46.67   29.67
 -10  -3 -10    8.94   34.15
 -10  -3 -10   -2.62   53.67
 -10  -3  -9   79.06   35.90
 -10  -3  -9   21.78   51.22
 -10  -3  -9   82.88   47.96
 -10  -3  -8  114.94   49.83
 -10  -3  -8  100.81   49.06
 -10  -3  -7   24.72   47.59
 -10  -3  -7   67.03   47.05
 -10  -3  -6   87.61   45.77
 -10  -3  -6    9.25   46.49
 -10  -3  -5   89.46   45.85
 -10  -3  -5  175.13   46.53
 -10  -3  -4   77.04   44.83
 -10  -3  -4  106.38   46.04
 -10  -3  -3  100.18   47.09
 -10  -3  -3   29.63   44.74
 -10  -3  -2   36.17   46.02
 -10  -3  -2   16.59   44.90
 -10  -3  -1  174.33   46.92
 -10  -3  -1  146.81   48.11
 -10  -3  -1  257.13   58.36
 -10  -3   0   88.13   62.60
 -10  -3   1   49.74   47.09
 -10  -3   1   69.15   49.09
 -10  -3   2  111.51   46.84
 -10  -3   2   35.94   48.93
 -10  -3   3  138.08   46.93
 -10  -3   3   52.82   19.05
 -10  -3   3  112.02   52.94
 -10  -2 -11  103.80   28.17
 -10  -2 -11  238.70   55.20
 -10  -2 -10  243.37   33.68
 -10  -2 -10  333.53   59.87
 -10  -2  -9  330.19   56.27
 -10  -2  -9  310.82   51.64
 -10  -2  -8  195.74   50.71
 -10  -2  -8  187.58   45.46
 -10  -2  -7  151.71   47.98
 -10  -2  -7  203.14   46.97
 -10  -2  -6  181.24   50.03
 -10  -2  -6  151.15   47.57
 -10  -2  -6  207.79   45.84
 -10  -2  -5  410.28   50.12
 -10  -2  -5  359.35   49.46
 -10  -2  -4  307.59   53.07
 -10  -2  -4  402.77   49.94
 -10  -2  -4  372.89   48.40
 -10  -2  -3  204.86   50.16
 -10  -2  -3  143.55   50.30
 -10  -2  -3  162.22   48.63
 -10  -2  -3  136.13   44.31
 -10  -2  -2  235.68   52.81
 -10  -2  -2  117.70   52.05
 -10  -2  -2  207.25   47.81
 -10  -2  -2  190.95   45.13
 -10  -2  -1  318.42   55.44
 -10  -2  -1  266.12   53.16
 -10  -2  -1  280.99   49.92
 -10  -2  -1  237.43   46.76
 -10  -2   0  289.42   54.52
 -10  -2   0  377.34   61.90
 -10  -2   0  263.21   46.82
 -10  -2   1   95.69   65.40
 -10  -2   1  279.83   51.79
 -10  -2   2  306.73   51.93
 -10  -2   2  247.90   47.37
 -10  -2   3  162.81   52.25
 -10  -2   3  154.12   46.57
 -10  -2   4   47.87   50.91
 -10  -2   4   90.11   47.03
 -10  -1 -11  304.11   54.32
 -10  -1 -10  271.90   62.65
 -10  -1 -10  210.56   50.76
 -10  -1  -9  402.26   60.91
 -10  -1  -8  362.81   48.99
 -10  -1  -8  528.18   58.22
 -10  -1  -8  445.16   50.81
 -10  -1  -7  380.03   50.52
 -10  -1  -7  479.99   55.09
 -10  -1  -7  386.50   49.39
 -10  -1  -6  162.95   49.42
 -10  -1  -6  222.35   47.08
 -10  -1  -6  263.75   47.63
 -10  -1  -5   75.05   44.17
 -10  -1  -5  128.26   43.69
 -10  -1  -4  326.33   48.62
 -10  -1  -4  278.07   52.01
 -10  -1  -4  291.53   48.05
 -10  -1  -4  235.36   46.23
 -10  -1  -3  390.09   53.88
 -10  -1  -3  447.55   52.08
 -10  -1  -3  388.77   50.25
 -10  -1  -3  413.21   47.64
 -10  -1  -2  465.17   55.43
 -10  -1  -2  353.40   52.12
 -10  -1  -2  257.64   48.20
 -10  -1  -2  282.75   46.79
 -10  -1  -1  131.78   52.90
 -10  -1  -1  130.62   48.09
 -10  -1  -1  142.44   51.47
 -10  -1   0  151.16   54.66
 -10  -1   0   90.92   52.00
 -10  -1   1   61.57   60.12
 -10  -1   1  111.97   48.01
 -10  -1   2   56.03   64.92
 -10  -1   2  192.47   49.82
 -10  -1   3   13.45   63.58
 -10  -1   3   -9.80   48.92
 -10  -1   4  -13.10   65.91
 -10  -1   4   38.21   50.42
 -10  -1   4   18.16   46.10
 -10   0 -10   68.89   49.14
 -10   0  -9  100.33   44.28
 -10   0  -9  220.92   61.30
 -10   0  -9   96.97   48.61
 -10   0  -8  190.21   46.43
 -10   0  -8  329.23   59.60
 -10   0  -7  145.09   47.22
 -10   0  -7  168.95   54.24
 -10   0  -7  145.64   44.75
 -10   0  -6   36.61   45.14
 -10   0  -6  -30.51   46.81
 -10   0  -6   47.37   41.44
 -10   0  -5   44.33   44.29
 -10   0  -5   58.12   42.74
 -10   0  -4  -19.06   43.83
 -10   0  -4   68.45   46.82
 -10   0  -3   80.24   49.18
 -10   0  -3    3.08   44.28
 -10   0  -3   13.35   46.89
 -10   0  -2  -32.74   51.63
 -10   0  -2   -0.43   44.47
 -10   0  -2   23.42   47.67
 -10   0  -1   82.40   52.32
 -10   0  -1   60.68   44.58
 -10   0  -1   54.75   50.02
 -10   0   0   56.84   55.09
 -10   0   0  -13.31   50.49
 -10   0   1   13.45   55.27
 -10   0   1  -42.77   53.28
 -10   0   2   12.03   48.08
 -10   0   2   -9.73   58.91
 -10   0   3  167.50   46.37
 -10   0   3   39.87   62.24
 -10   0   3    1.63   48.70
 -10   0   4   21.59   65.92
 -10   0   4   82.17   50.71
 -10   0   5   10.89   68.29
 -10   0   5    8.02   47.67
 -10   1 -10   99.65   39.71
 -10   1 -10   68.83   46.98
 -10   1  -9   87.52   41.83
 -10   1  -9   87.28   59.92
 -10   1  -9   51.47   46.44
 -10   1  -8  111.80   58.39
 -10   1  -7   77.41   55.40
 -10   1  -7    7.78   42.94
 -10   1  -6   63.85   50.36
 -10   1  -6   70.72   42.61
 -10   1  -5   68.78   49.26
 -10   1  -4  128.55   47.63
 -10   1  -3  242.27   49.16
 -10   1  -3  515.54   55.28
 -10   1  -2  254.01   48.24
 -10   1  -2  277.95   53.08
 -10   1  -1   98.80   54.38
 -10   1  -1  160.12   46.55
 -10   1  -1  137.81   49.83
 -10   1   0  340.31   55.95
 -10   1   0  173.68   51.26
 -10   1   1  272.14   56.71
 -10   1   1  161.79   52.58
 -10   1   2  191.06   49.39
 -10   1   2   80.48   58.27
 -10   1   3  225.42   50.29
 -10   1   3  112.99   61.92
 -10   1   4  187.27   49.35
 -10   1   4   71.15   65.02
 -10   1   5   66.43   47.48
 -10   1   5   27.48   66.87
 -10   2  -9   15.66   61.08
 -10   2  -9   54.75   46.44
 -10   2  -8  222.74   61.43
 -10   2  -8  143.11   46.03
 -10   2  -7  518.50   63.26
 -10   2  -6  354.49   56.03
 -10   2  -5  112.19   51.38
 -10   2  -4  167.68   50.26
 -10   2  -3  166.12   50.18
 -10   2  -2  394.40   52.60
 -10   2  -2  571.67   55.77
 -10   2  -1  278.10   53.75
 -10   2  -1  340.69   56.59
 -10   2   0   94.18   54.98
 -10   2   1  102.43   40.57
 -10   2   1  109.38   55.29
 -10   2   2  152.76   43.59
 -10   2   2   31.58   56.91
 -10   2   2  -20.34   50.07
 -10   2   3  103.27   60.35
 -10   2   3   80.72   49.70
 -10   2   4   14.25   62.58
 -10   2   4   36.98   49.50
 -10   2   5  -29.86   65.08
 -10   2   5   97.60   49.49
 -10   3  -8   82.03   55.03
 -10   3  -8   92.81   62.41
 -10   3  -8  116.79   46.06
 -10   3  -7  174.34   50.87
 -10   3  -7  190.00   60.15
 -10   3  -7  162.67   47.07
 -10   3  -6  175.85   57.39
 -10   3  -6  178.30   48.67
 -10   3  -5   51.21   51.05
 -10   3  -5   67.75   41.35
 -10   3  -4   92.86   49.96
 -10   3  -4   66.08   38.04
 -10   3  -3   11.64   49.28
 -10   3  -3  -10.63   31.75
 -10   3  -2  -39.44   49.33
 -10   3  -2   16.97   27.02
 -10   3  -1  260.22   54.14
 -10   3  -1   45.32   48.32
 -10   3   0   21.47   53.16
 -10   3   1  -30.92   57.96
 -10   3   1  129.38   41.02
 -10   3   2    3.53   50.16
 -10   3   2   23.76   57.89
 -10   3   3   13.10   52.29
 -10   3   3   15.16   59.63
 -10   3   4   -9.99   50.48
 -10   3   4   10.75   62.56
 -10   3   5   23.15   47.48
 -10   3   5  -23.24   64.91
 -10   4  -7  -18.71   59.38
 -10   4  -7   25.09   50.13
 -10   4  -6   39.21   56.12
 -10   4  -6   45.07   47.81
 -10   4  -5   20.40   54.25
 -10   4  -4   46.00   51.29
 -10   4  -4   18.58   40.91
 -10   4  -3   58.11   50.82
 -10   4  -3   16.76   36.61
 -10   4  -2  182.49   52.62
 -10   4  -2  132.27   35.05
 -10   4  -1  141.04   52.85
 -10   4  -1  156.98   30.95
 -10   4   0   67.55   25.77
 -10   4   0  151.20   56.37
 -10   4   1   22.29   17.09
 -10   4   1   74.86   58.47
 -10   4   2   79.36   50.49
 -10   4   2    2.76   61.03
 -10   4   3  131.41   50.74
 -10   4   3  129.73   65.01
 -10   4   4  222.00   52.54
 -10   4   4  158.29   68.08
 -10   4   5   97.93   49.61
 -10   4   5   65.11   68.25
 -10   5  -6  303.34   63.45
 -10   5  -6  329.41   54.46
 -10   5  -5  316.09   61.19
 -10   5  -5  296.17   50.05
 -10   5  -4  171.09   55.73
 -10   5  -4  112.04   45.85
 -10   5  -3  135.57   54.92
 -10   5  -3   66.70   41.46
 -10   5  -2   91.66   54.08
 -10   5  -2   94.96   38.83
 -10   5  -1  265.62   56.46
 -10   5  -1  117.18   36.20
 -10   5   0   94.85   33.22
 -10   5   1   32.20   28.42
 -10   5   1  167.25   60.52
 -10   5   2    4.12   25.26
 -10   5   2   97.18   52.39
 -10   5   3   43.72   23.83
 -10   5   3   65.99   51.26
 -10   5   3  122.97   66.07
 -10   5   4   27.80   23.33
 -10   5   4   34.80   20.45
 -10   5   4   -4.29   23.15
 -10   5   4  102.63   51.02
 -10   5   4   33.90   72.06
 -10   5   5   55.95   25.18
 -10   5   5  101.42   50.47
 -10   5   5   66.65   23.25
 -10   5   5   84.61   71.89
 -10   6  -5  214.20   63.59
 -10   6  -5  214.99   52.96
 -10   6  -4   72.28   57.46
 -10   6  -4   78.41   46.39
 -10   6  -3   89.72   55.40
 -10   6  -3   41.64   44.14
 -10   6  -2    0.58   55.15
 -10   6  -2   36.26   40.80
 -10   6  -1   11.66   55.29
 -10   6  -1    3.14   37.15
 -10   6   0    3.85   34.25
 -10   6   1   19.43   33.28
 -10   6   2   38.14   30.94
 -10   6   2   18.23   28.07
 -10   6   2    4.49   53.33
 -10   6   3   32.93   26.41
 -10   6   3  -16.65   30.57
 -10   6   3  -31.63   54.09
 -10   6   4   -3.00   29.24
 -10   6   4   41.70   25.29
 -10   6   4   59.21   53.59
 -10   6   4   43.19   70.89
 -10   6   5   53.17   29.27
 -10   6   5  -55.78   53.22
 -10   6   5   23.13   28.99
 -10   6   5  -14.04   75.29
 -10   7  -3   23.94   59.72
 -10   7  -3  -32.21   46.25
 -10   7  -2   15.86   60.08
 -10   7  -2  -26.64   44.34
 -10   7  -1   11.62   58.03
 -10   7  -1  -22.86   41.69
 -10   7   0   68.43   39.82
 -10   7   1   13.77   34.50
 -10   7   1   44.62   37.36
 -10   7   2  -11.00   57.09
 -10   7   2   -9.22   36.71
 -10   7   2   33.25   32.65
 -10   7   3   63.39   30.93
 -10   7   3   11.65   36.02
 -10   7   3   68.32   58.45
 -10   7   4   94.76   30.89
 -10   7   4   33.97   34.51
 -10   7   4   52.60   56.34
 -10   8  -1  104.40   47.67
 -10   8  -1   89.37   64.63
 -10   8   0   64.78   44.88
 -10   8   1   65.81   42.40
 -10   8   1   56.86   38.65
 -10   8   2   27.06   41.81
 -10   8   2   24.88   37.37
 -10   8   2   91.49   61.65
 -10   8   3   87.07   35.72
 -10   8   3   21.06   41.56
 -10   8   3   91.11   62.03
  -9 -10  -9  182.30   65.80
  -9 -10  -9   60.03   74.51
  -9 -10  -9  208.52   63.32
  -9 -10  -8  342.82   67.15
  -9 -10  -8  417.13   72.55
  -9 -10  -8  230.30   38.83
  -9 -10  -7  232.51   63.49
  -9 -10  -7  185.84   65.97
  -9 -10  -7  145.15   41.61
  -9 -10  -6   94.84   63.11
  -9 -10  -6  121.86   47.32
  -9 -10  -5  136.08   56.75
  -9  -9 -11  180.13   65.32
  -9  -9 -11  152.08   48.45
  -9  -9 -10  343.38   66.05
  -9  -9 -10  399.69   61.95
  -9  -9 -10  351.77   52.78
  -9  -9  -9  411.69   66.00
  -9  -9  -9  413.73   56.18
  -9  -9  -9  491.64   62.61
  -9  -9  -8  649.27   68.60
  -9  -9  -8  677.28   75.27
  -9  -9  -8  759.07   73.46
  -9  -9  -8  578.95   41.77
  -9  -9  -8  716.58   67.40
  -9  -9  -7  422.30   43.45
  -9  -9  -7  510.04   66.23
  -9  -9  -7  431.50   64.39
  -9  -9  -7  468.64   68.72
  -9  -9  -6  178.37   45.93
  -9  -9  -6  200.11   58.01
  -9  -9  -6  215.99   58.18
  -9  -9  -6  269.69   61.01
  -9  -9  -5  137.22   55.19
  -9  -9  -3  364.19   59.45
  -9  -8 -12  305.94   58.85
  -9  -8 -12  321.77   66.98
  -9  -8 -11  133.38   45.66
  -9  -8 -11  184.16   61.88
  -9  -8 -10  112.39   46.27
  -9  -8 -10   72.31   55.97
  -9  -8 -10  113.41   60.04
  -9  -8  -9  151.72   47.66
  -9  -8  -9  179.10   56.87
  -9  -8  -9  166.28   59.44
  -9  -8  -8  187.48   36.60
  -9  -8  -8   93.64   63.62
  -9  -8  -8  108.24   57.47
  -9  -8  -8   77.76   47.33
  -9  -8  -8   56.53   55.11
  -9  -8  -7   65.48   56.71
  -9  -8  -7   65.75   64.26
  -9  -8  -7  130.31   41.40
  -9  -8  -7  162.48   61.80
  -9  -8  -7   95.96   55.66
  -9  -8  -6   26.86   55.63
  -9  -8  -6   21.44   43.47
  -9  -8  -6  -30.36   55.32
  -9  -8  -6   27.23   56.79
  -9  -8  -5  -24.89   47.33
  -9  -8  -5   47.34   51.51
  -9  -8  -5   26.29   51.91
  -9  -8  -5   -7.89   53.11
  -9  -8  -4   70.10   50.80
  -9  -8  -2  138.47   53.10
  -9  -8  -1   93.67   64.49
  -9  -8  -1   79.79   51.61
  -9  -7 -12   49.92   54.31
  -9  -7 -12   30.64   60.48
  -9  -7 -11  103.69   41.71
  -9  -7 -11   12.12   57.66
  -9  -7 -10  -10.00   41.22
  -9  -7 -10   67.29   51.15
  -9  -7 -10   17.91   53.63
  -9  -7  -9   55.72   43.00
  -9  -7  -9   44.97   52.43
  -9  -7  -9    6.54   55.10
  -9  -7  -8  239.93   46.76
  -9  -7  -8  288.78   54.76
  -9  -7  -8  203.48   55.47
  -9  -7  -7  466.66   46.24
  -9  -7  -7  498.73   62.27
  -9  -7  -7  540.00   60.08
  -9  -7  -7  552.89   53.09
  -9  -7  -7  566.72   57.81
  -9  -7  -6  460.03   59.01
  -9  -7  -6  392.42   62.70
  -9  -7  -6  418.10   59.79
  -9  -7  -6  422.63   44.57
  -9  -7  -6  452.31   56.03
  -9  -7  -5  285.35   48.15
  -9  -7  -5  294.45   52.09
  -9  -7  -5  220.46   53.28
  -9  -7  -5  282.38   53.32
  -9  -7  -5  260.25   48.53
  -9  -7  -5  330.25   53.55
  -9  -7  -4  260.78   54.57
  -9  -7  -4  320.05   49.53
  -9  -7  -4  416.15   48.39
  -9  -7  -4  342.86   52.48
  -9  -7  -4  306.95   51.25
  -9  -7  -3  753.18   48.93
  -9  -7  -2  869.23   62.53
  -9  -7  -1  626.16   58.55
  -9  -7   0  279.36   53.34
  -9  -6 -12  581.55   59.68
  -9  -6 -11  593.58   44.07
  -9  -6 -11  805.57   66.22
  -9  -6 -10  371.58   40.95
  -9  -6 -10  341.04   53.65
  -9  -6 -10  306.47   56.79
  -9  -6  -9  225.25   41.94
  -9  -6  -9  296.73   53.10
  -9  -6  -9  276.81   56.69
  -9  -6  -8  646.87   50.11
  -9  -6  -8  703.12   57.44
  -9  -6  -8  666.92   61.32
  -9  -6  -7 1065.75   51.39
  -9  -6  -7  943.42   55.06
  -9  -6  -7 1082.47   62.34
  -9  -6  -7  952.09   64.32
  -9  -6  -6  792.02   49.84
  -9  -6  -6  818.03   58.03
  -9  -6  -6  647.84   58.76
  -9  -6  -5  582.31   53.16
  -9  -6  -5  644.41   48.71
  -9  -6  -5  596.23   55.23
  -9  -6  -5  551.52   50.82
  -9  -6  -5  623.87   54.50
  -9  -6  -4  613.00   49.11
  -9  -6  -4  628.47   51.80
  -9  -6  -4  610.83   55.50
  -9  -6  -4  581.98   50.77
  -9  -6  -4  577.97   51.92
  -9  -6  -4  567.71   53.29
  -9  -6  -3  391.21   43.39
  -9  -6  -3  314.79   51.81
  -9  -6  -3  388.99   42.84
  -9  -6  -3  334.77   49.11
  -9  -6  -3  350.82   52.49
  -9  -6  -1  133.74   46.93
  -9  -6   0  119.14   46.44
  -9  -6   1   53.48   47.17
  -9  -5 -12  224.25   54.16
  -9  -5 -11  128.50   34.05
  -9  -5 -11  218.00   56.61
  -9  -5 -10  157.33   35.95
  -9  -5 -10  161.56   51.10
  -9  -5 -10  183.44   55.40
  -9  -5  -9  183.87   38.18
  -9  -5  -9  224.12   49.48
  -9  -5  -9  261.79   54.24
  -9  -5  -8  115.97   38.79
  -9  -5  -8  142.46   47.83
  -9  -5  -8  132.02   50.28
  -9  -5  -7   31.94   39.43
  -9  -5  -7   36.06   44.78
  -9  -5  -7   48.03   46.75
  -9  -5  -6   -0.78   41.17
  -9  -5  -6   30.70   43.27
  -9  -5  -6   39.14   46.06
  -9  -5  -5  107.44   40.19
  -9  -5  -5   52.94   40.45
  -9  -5  -5   56.60   43.19
  -9  -5  -5   13.58   45.43
  -9  -5  -4  100.30   38.92
  -9  -5  -4   86.10   44.65
  -9  -5  -4  140.73   42.82
  -9  -5  -4   83.76   44.00
  -9  -5  -3   78.67   36.31
  -9  -5  -3  109.82   44.31
  -9  -5  -3   37.82   36.90
  -9  -5  -3  103.19   41.94
  -9  -5  -3   77.19   46.45
  -9  -5  -2  292.70   35.01
  -9  -5  -2  277.14   47.80
  -9  -5  -2  244.60   35.92
  -9  -5  -2  228.45   45.62
  -9  -5  -2  242.42   48.21
  -9  -5  -1  328.48   48.80
  -9  -5  -1  351.04   51.80
  -9  -5   0  123.74   44.51
  -9  -5   1  160.78   49.94
  -9  -5   1   53.82   43.21
  -9  -5   2  142.48   66.52
  -9  -5   2  117.73   51.76
  -9  -5   2  114.73   44.98
  -9  -4 -12  -12.97   53.95
  -9  -4 -12   68.05   56.19
  -9  -4 -11  112.56   29.79
  -9  -4 -10  161.35   33.91
  -9  -4 -10  225.93   50.81
  -9  -4 -10  235.00   55.03
  -9  -4  -9   83.35   33.79
  -9  -4  -9   53.65   47.29
  -9  -4  -9  108.34   48.09
  -9  -4  -8  328.69   39.55
  -9  -4  -8  251.78   49.80
  -9  -4  -8  328.97   48.79
  -9  -4  -7  790.33   46.42
  -9  -4  -7  841.33   56.19
  -9  -4  -7  864.54   55.72
  -9  -4  -6  992.34   50.57
  -9  -4  -6  967.98   55.51
  -9  -4  -6  924.99   56.82
  -9  -4  -5  239.81   40.71
  -9  -4  -5  306.60   44.46
  -9  -4  -5  258.19   46.25
  -9  -4  -4  422.33   43.83
  -9  -4  -4  441.79   47.46
  -9  -4  -4  450.67   48.05
  -9  -4  -3  647.52   47.15
  -9  -4  -3  646.82   50.54
  -9  -4  -3  674.59   50.02
  -9  -4  -2  792.36   35.94
  -9  -4  -2  892.92   52.48
  -9  -4  -2  969.07   56.00
  -9  -4  -2  974.51   55.47
  -9  -4  -1  588.11   31.41
  -9  -4  -1  584.51   49.80
  -9  -4  -1  736.58   52.86
  -9  -4  -1  652.48   50.14
  -9  -4   0  284.81   46.69
  -9  -4   1  383.90   46.57
  -9  -4   2  280.81   49.76
  -9  -4   2  278.57   44.74
  -9  -4   3  294.10   50.18
  -9  -4   3  241.95   45.64
  -9  -3 -12  540.62   64.63
  -9  -3 -12  588.36   60.97
  -9  -3 -11  336.88   27.87
  -9  -3 -11  609.59   59.91
  -9  -3 -10  584.61   36.35
  -9  -3 -10  775.11   60.24
  -9  -3  -9  712.53   41.26
  -9  -3  -9  955.64   58.21
  -9  -3  -9  941.10   58.68
  -9  -3  -8 1001.36   46.56
  -9  -3  -8 1093.12   60.23
  -9  -3  -8 1012.29   58.35
  -9  -3  -7  859.54   55.16
  -9  -3  -7  702.50   51.84
  -9  -3  -6  898.66   53.97
  -9  -3  -6  913.41   54.13
  -9  -3  -5  624.14   48.34
  -9  -3  -5  552.92   48.46
  -9  -3  -4  353.46   43.50
  -9  -3  -4  292.66   44.13
  -9  -3  -3  461.75   46.84
  -9  -3  -3  462.13   47.07
  -9  -3  -2  222.50   47.49
  -9  -3  -2  234.70   44.38
  -9  -3  -2  190.85   42.82
  -9  -3  -1  356.48   55.81
  -9  -3  -1  339.77   47.37
  -9  -3  -1  265.52   44.83
  -9  -3   0   88.29   42.06
  -9  -3   2  218.94   46.87
  -9  -3   2  147.29   44.73
  -9  -3   3   92.86   46.32
  -9  -3   3    2.41   41.94
  -9  -3   4   42.15   46.51
  -9  -3   4   45.33   42.21
  -9  -2 -12  167.76   60.84
  -9  -2 -12  102.59   53.19
  -9  -2 -11   55.30   21.94
  -9  -2 -11  166.43   52.96
  -9  -2 -10   76.91   29.04
  -9  -2  -9  247.97   52.59
  -9  -2  -9  258.90   48.68
  -9  -2  -8  413.63   50.19
  -9  -2  -8  459.32   48.98
  -9  -2  -7  311.93   47.38
  -9  -2  -7  315.80   45.00
  -9  -2  -6   43.29   42.57
  -9  -2  -6  110.51   41.64
  -9  -2  -5   14.14   40.02
  -9  -2  -5   96.71   40.31
  -9  -2  -4   86.27   43.75
  -9  -2  -4   61.00   39.02
  -9  -2  -4   80.07   39.45
  -9  -2  -3  155.10   41.81
  -9  -2  -3   77.74   44.57
  -9  -2  -3   98.60   41.50
  -9  -2  -3   91.11   39.40
  -9  -2  -2   54.93   45.30
  -9  -2  -2    5.74   45.12
  -9  -2  -2   22.90   40.58
  -9  -2  -2   30.43   38.86
  -9  -2  -1  116.33   48.77
  -9  -2  -1  132.55   46.72
  -9  -2  -1  125.49   42.74
  -9  -2  -1  173.70   40.97
  -9  -2   0  121.55   52.51
  -9  -2   0  167.05   42.00
  -9  -2   0  163.68   47.77
  -9  -2   0  121.57   43.61
  -9  -2   1   17.23   48.72
  -9  -2   2   -2.63   43.86
  -9  -2   3   39.33   24.55
  -9  -2   3   26.39   44.52
  -9  -2   3   66.18   41.58
  -9  -2   4    4.40   33.07
  -9  -2   4  106.82   42.45
  -9  -2   4   93.39   35.08
  -9  -2   4  134.62   48.06
  -9  -2   5    0.19   40.19
  -9  -2   5  130.84   43.19
  -9  -2   5   95.99   41.75
  -9  -2   5  141.89   48.92
  -9  -1 -12  148.42   63.03
  -9  -1 -12   57.51   52.71
  -9  -1 -11   51.57   16.25
  -9  -1 -11  187.02   50.42
  -9  -1 -10  307.74   49.07
  -9  -1  -9  344.18   58.73
  -9  -1  -8   94.08   41.60
  -9  -1  -8  110.33   50.75
  -9  -1  -8   89.31   41.86
  -9  -1  -7   80.61   41.17
  -9  -1  -7   81.31   45.05
  -9  -1  -7  162.56   42.02
  -9  -1  -6  510.09   48.60
  -9  -1  -6  478.58   45.19
  -9  -1  -5  434.33   45.46
  -9  -1  -5  480.94   44.30
  -9  -1  -4   96.41   39.96
  -9  -1  -4   42.22   42.03
  -9  -1  -4   22.89   38.48
  -9  -1  -4   27.41   36.48
  -9  -1  -3  461.24   47.21
  -9  -1  -3  514.29   47.26
  -9  -1  -3  426.83   46.18
  -9  -1  -3  521.15   44.04
  -9  -1  -2  552.39   48.04
  -9  -1  -2  434.68   47.12
  -9  -1  -2  517.76   48.92
  -9  -1  -1  361.56   49.43
  -9  -1  -1  278.05   44.17
  -9  -1  -1  313.92   46.91
  -9  -1   0  179.52   49.25
  -9  -1   0  153.26   42.41
  -9  -1   0  126.13   45.72
  -9  -1   1  164.15   54.27
  -9  -1   1  126.54   49.52
  -9  -1   2  262.32   57.91
  -9  -1   2  199.20   52.46
  -9  -1   2  229.62   46.50
  -9  -1   3  244.10   47.24
  -9  -1   3  334.70   43.44
  -9  -1   4  220.99   47.36
  -9  -1   4  347.41   47.27
  -9  -1   5   12.86   31.61
  -9  -1   5  100.20   46.99
  -9   0 -11  554.16   68.67
  -9   0 -11  379.10   52.15
  -9   0 -10  298.50   48.30
  -9   0  -9  249.88   40.68
  -9   0  -9  330.09   57.76
  -9   0  -9  358.64   47.76
  -9   0  -8  271.96   41.15
  -9   0  -8  432.31   57.36
  -9   0  -7  565.77   45.07
  -9   0  -7  743.20   56.76
  -9   0  -7  549.19   48.12
  -9   0  -6  342.69   43.65
  -9   0  -6  440.19   49.21
  -9   0  -6  329.67   42.14
  -9   0  -5  366.11   44.83
  -9   0  -5  353.59   42.85
  -9   0  -4  310.04   42.97
  -9   0  -4  172.09   39.92
  -9   0  -4  201.85   41.72
  -9   0  -3  365.32   47.55
  -9   0  -3  312.43   43.80
  -9   0  -3  362.13   44.98
  -9   0  -2  923.91   56.60
  -9   0  -2  843.92   52.96
  -9   0  -2  933.54   51.76
  -9   0  -1  265.82   46.60
  -9   0  -1  183.21   43.40
  -9   0  -1  224.37   44.76
  -9   0   0   89.27   46.79
  -9   0   0   40.24   41.53
  -9   0   0   76.98   43.68
  -9   0   1  106.92   49.20
  -9   0   1   95.36   46.11
  -9   0   2  298.91   54.62
  -9   0   2  179.26   44.95
  -9   0   2  268.75   51.39
  -9   0   3   80.54   56.39
  -9   0   3  236.92   55.08
  -9   0   3  179.67   44.40
  -9   0   4  164.60   46.49
  -9   0   4   97.77   43.84
  -9   0   4   33.58   59.48
  -9   0   5   15.72   49.40
  -9   0   5    0.68   43.60
  -9   0   6   81.38   42.84
  -9   1 -11  327.73   66.55
  -9   1 -11  282.91   50.89
  -9   1 -10   70.79   34.41
  -9   1 -10   72.02   44.49
  -9   1  -9  195.18   59.15
  -9   1  -9   67.44   44.10
  -9   1  -8  222.38   56.33
  -9   1  -7  315.23   54.22
  -9   1  -6  206.51   48.81
  -9   1  -6  120.55   39.03
  -9   1  -5    2.75   43.42
  -9   1  -4   23.42   40.63
  -9   1  -3  154.54   45.39
  -9   1  -3   30.47   40.91
  -9   1  -2  161.14   47.33
  -9   1  -2   48.75   43.40
  -9   1  -1   13.34   47.29
  -9   1  -1  -10.78   40.15
  -9   1   0   39.18   45.77
  -9   1   0    7.92   40.90
  -9   1   1  -29.01   45.25
  -9   1   1   79.14   46.41
  -9   1   1  113.64   36.90
  -9   1   2  -50.83   48.34
  -9   1   2  -38.84   48.04
  -9   1   2  -20.56   41.88
  -9   1   2   55.46   39.13
  -9   1   3  -12.37   53.02
  -9   1   3  -12.66   42.21
  -9   1   3   22.39   51.85
  -9   1   4   -7.95   42.81
  -9   1   4    0.54   56.62
  -9   1   5    5.64   49.42
  -9   1   5   -9.94   61.34
  -9   1   5   -4.12   41.45
  -9   1   6   41.08   27.24
  -9   1   6   12.56   64.34
  -9   1   6   46.09   41.10
  -9   2 -10  104.91   45.27
  -9   2  -9  171.88   60.35
  -9   2  -9   70.34   43.13
  -9   2  -8   61.54   49.06
  -9   2  -8  102.95   55.29
  -9   2  -8   50.55   43.91
  -9   2  -7  140.76   53.71
  -9   2  -7  108.24   47.55
  -9   2  -6   66.06   49.81
  -9   2  -6   30.56   40.67
  -9   2  -5  130.17   45.29
  -9   2  -5   65.61   37.46
  -9   2  -4  187.93   44.36
  -9   2  -4  122.76   33.03
  -9   2  -3  111.23   44.25
  -9   2  -3   77.94   27.83
  -9   2  -2  269.30   47.69
  -9   2  -2   83.20   44.17
  -9   2  -1  141.24   47.21
  -9   2  -1   64.64   43.14
  -9   2   0   61.81   47.65
  -9   2   0   77.59   42.91
  -9   2   1  197.85   47.52
  -9   2   1  169.88   37.27
  -9   2   2  410.65   52.25
  -9   2   2  310.32   42.69
  -9   2   3  305.83   53.79
  -9   2   3  296.63   53.72
  -9   2   3  257.06   46.09
  -9   2   3  311.59   45.68
  -9   2   4  353.85   58.31
  -9   2   4  189.06   45.94
  -9   2   4  233.48   56.39
  -9   2   5  137.40   44.69
  -9   2   5  101.34   60.20
  -9   2   5   26.48   18.67
  -9   2   6   81.00   25.29
  -9   2   6   33.30   28.65
  -9   2   6  120.14   43.68
  -9   2   6  109.79   64.40
  -9   2   7   98.32   31.41
  -9   2   7   55.08   35.06
  -9   2   7   55.12   70.62
  -9   2   7  105.24   37.95
  -9   3  -9  160.27   56.89
  -9   3  -9  224.86   63.53
  -9   3  -9  126.40   45.06
  -9   3  -8  253.12   54.68
  -9   3  -8  300.87   61.17
  -9   3  -8  241.92   45.05
  -9   3  -7  420.91   51.99
  -9   3  -7  422.67   60.47
  -9   3  -7  381.32   45.60
  -9   3  -6  382.58   56.46
  -9   3  -6  394.06   49.55
  -9   3  -5  142.27   48.83
  -9   3  -5  106.23   42.80
  -9   3  -4  133.37   45.87
  -9   3  -4  110.29   36.74
  -9   3  -3  236.31   45.38
  -9   3  -3  145.92   33.51
  -9   3  -2  324.95   46.92
  -9   3  -2  212.91   31.76
  -9   3  -1  385.35   29.31
  -9   3  -1  493.92   50.24
  -9   3   0  247.46   49.62
  -9   3   0  155.64   46.43
  -9   3   1  -87.40   51.32
  -9   3   1   57.84   37.50
  -9   3   2  152.95   50.44
  -9   3   2   81.68   40.20
  -9   3   3  283.97   54.90
  -9   3   3  236.99   46.99
  -9   3   3  268.52   45.48
  -9   3   4   24.57   11.50
  -9   3   4  176.97   57.16
  -9   3   4  128.73   45.52
  -9   3   4   97.25   46.59
  -9   3   5   47.68   23.63
  -9   3   5   71.53   42.99
  -9   3   5  139.63   61.19
  -9   3   6    9.41   29.32
  -9   3   6   56.18   40.67
  -9   3   6    7.05   63.49
  -9   3   7   11.47   32.52
  -9   3   7   83.58   34.11
  -9   3   7   33.46   67.63
  -9   3   7   26.01   36.19
  -9   4  -8   78.13   43.58
  -9   4  -8  126.83   55.72
  -9   4  -8  138.79   60.02
  -9   4  -7  177.15   51.15
  -9   4  -7  182.15   58.55
  -9   4  -6  173.04   51.01
  -9   4  -6  175.19   56.31
  -9   4  -5   33.77   43.28
  -9   4  -5   94.50   50.83
  -9   4  -4   19.52   39.09
  -9   4  -4   74.65   47.05
  -9   4  -3   15.59   35.38
  -9   4  -3   11.47   45.35
  -9   4  -2    9.23   34.46
  -9   4  -2   24.74   47.05
  -9   4  -1   27.19   30.09
  -9   4  -1   26.18   45.43
  -9   4   0  128.58   38.16
  -9   4   0    8.07   26.97
  -9   4   0  160.96   49.32
  -9   4   0   17.08   47.68
  -9   4   1   20.84   49.97
  -9   4   1   71.18   37.84
  -9   4   1   13.55   22.39
  -9   4   2  -37.86   54.13
  -9   4   2   41.74   40.53
  -9   4   2  -10.68   20.61
  -9   4   3   37.30   42.94
  -9   4   3  -20.27   20.07
  -9   4   3   12.77   17.44
  -9   4   3  -24.43   45.98
  -9   4   3  -45.59   56.69
  -9   4   4   34.95   23.16
  -9   4   4  102.12   46.41
  -9   4   5   39.53   26.05
  -9   4   5   22.27   44.38
  -9   4   5   67.82   62.20
  -9   4   6   25.80   30.23
  -9   4   6    9.73   41.31
  -9   4   6   65.35   64.13
  -9   4   7   24.25   34.10
  -9   4   7   27.36   36.83
  -9   4   7    0.62   66.31
  -9   5  -7  -51.49   51.61
  -9   5  -7   12.34   59.66
  -9   5  -6  -46.32   48.33
  -9   5  -6   46.51   56.19
  -9   5  -5    3.53   45.29
  -9   5  -5   33.39   52.65
  -9   5  -4   36.90   44.20
  -9   5  -4   30.89   47.74
  -9   5  -3   16.99   40.06
  -9   5  -3   61.83   46.61
  -9   5  -2   69.53   37.35
  -9   5  -2  138.21   48.94
  -9   5  -1  211.83   35.01
  -9   5  -1  232.13   51.40
  -9   5   0  321.85   43.15
  -9   5   0  196.92   33.73
  -9   5   0  226.21   49.57
  -9   5   1  107.90   41.36
  -9   5   1   30.04   26.38
  -9   5   1   53.53   28.31
  -9   5   2  118.67   55.97
  -9   5   2   63.46   42.74
  -9   5   2   73.42   24.13
  -9   5   2    3.67   26.61
  -9   5   3  228.30   63.36
  -9   5   3  193.33   49.08
  -9   5   3  100.10   26.72
  -9   5   4  373.07   68.18
  -9   5   4  259.93   49.48
  -9   5   5  187.93   46.90
  -9   5   5  134.98   30.28
  -9   5   6  134.95   45.23
  -9   5   6   66.21   31.95
  -9   5   7   95.90   40.26
  -9   5   7   53.90   34.70
  -9   6  -6  250.14   64.52
  -9   6  -6  219.98   53.25
  -9   6  -5  157.33   59.37
  -9   6  -5  151.89   48.91
  -9   6  -4  189.78   56.74
  -9   6  -4  207.18   47.58
  -9   6  -3  176.66   54.54
  -9   6  -3  153.22   44.83
  -9   6  -2  214.07   54.09
  -9   6  -2  220.40   42.43
  -9   6  -1  298.55   40.69
  -9   6  -1  366.79   56.50
  -9   6   0  357.58   37.47
  -9   6   0  436.97   55.08
  -9   6   0  345.46   38.41
  -9   6   1  118.58   31.26
  -9   6   1  104.38   33.71
  -9   6   2   89.01   29.42
  -9   6   2    8.74   33.76
  -9   6   3  106.17   27.50
  -9   6   3   34.27   30.88
  -9   6   3  113.12   50.22
  -9   6   4  136.38   50.61
  -9   6   4  142.54   31.82
  -9   6   4  151.60   67.65
  -9   6   5   90.26   50.05
  -9   6   5   61.75   69.02
  -9   6   6   84.21   46.61
  -9   6   7   80.14   42.01
  -9   6   7   59.71   36.30
  -9   7  -5  144.46   62.55
  -9   7  -5  130.76   52.72
  -9   7  -4   49.42   59.12
  -9   7  -4   81.27   49.41
  -9   7  -3   64.40   56.70
  -9   7  -3   57.37   46.96
  -9   7  -2  107.87   56.08
  -9   7  -2  124.08   44.38
  -9   7  -1   44.05   55.82
  -9   7  -1   73.80   41.01
  -9   7   0   22.28   54.62
  -9   7   0   24.91   39.09
  -9   7   0   39.53   35.89
  -9   7   1   21.22   33.64
  -9   7   1  -19.85   37.76
  -9   7   2   51.82   32.17
  -9   7   2  -11.36   36.55
  -9   7   3   23.80   36.94
  -9   7   3   65.60   31.70
  -9   7   3  -10.14   52.45
  -9   7   4    0.93   52.14
  -9   7   4   50.48   35.25
  -9   7   5   68.30   52.08
  -9   7   6   19.05   49.70
  -9   8  -3   31.07   50.13
  -9   8  -3   31.11   59.01
  -9   8  -2   -6.13   46.78
  -9   8  -2    9.76   58.77
  -9   8  -1   93.87   47.51
  -9   8  -1  -14.30   42.16
  -9   8  -1   35.52   58.49
  -9   8   0  119.55   44.32
  -9   8   0   76.24   41.05
  -9   8   0  113.46   59.52
  -9   8   1   45.83   43.53
  -9   8   1   32.02   38.69
  -9   8   2  -26.79   42.86
  -9   8   2  112.17   38.80
  -9   8   2   56.74   58.76
  -9   8   3   31.62   35.99
  -9   8   3   24.88   42.54
  -9   8   3   42.31   58.01
  -9   8   4   91.06   42.26
  -9   8   4  110.45   58.26
  -9   8   5  187.81   56.18
  -9   9  -1  120.05   50.44
  -9   9  -1   72.12   62.86
  -9   9   0   73.72   46.80
  -9   9   0  104.70   49.52
  -9   9   0  149.94   64.07
  -9   9   1  152.95   45.66
  -9   9   1  119.99   49.59
  -9   9   2   80.67   48.95
  -9   9   2  118.73   42.77
  -9   9   2  132.00   61.64
  -9   9   3   70.13   40.84
  -9   9   3   48.41   48.00
  -9   9   3  148.92   61.20
  -9   9   4   85.44   48.46
  -9   9   4  106.63   57.31
  -8 -11  -9  484.59   74.71
  -8 -11  -9  416.64   68.50
  -8 -11  -8  537.61   73.92
  -8 -11  -8  353.09   32.04
  -8 -11  -8  390.58   68.67
  -8 -11  -7  257.45   64.35
  -8 -11  -7  208.05   40.06
  -8 -11  -7  273.34   64.28
  -8 -11  -6  103.39   57.79
  -8 -10 -11  113.84   64.74
  -8 -10 -10   20.99   63.96
  -8 -10  -9  102.02   70.26
  -8 -10  -9  105.98   61.90
  -8 -10  -8  118.60   63.37
  -8 -10  -8   -1.04   30.06
  -8 -10  -8  116.21   61.54
  -8 -10  -7   81.53   61.95
  -8 -10  -7    5.82   35.64
  -8 -10  -7  144.93   59.61
  -8 -10  -6   12.97   55.23
  -8 -10  -6   33.80   56.73
  -8 -10  -5   33.35   46.09
  -8 -10  -4   83.59   44.81
  -8 -10  -4    2.13   56.90
  -8 -10  -4   43.01   51.62
  -8 -10  -3   16.16   42.37
  -8 -10  -3   23.08   59.19
  -8 -10  -3   71.34   56.86
  -8  -9 -12   41.50   52.68
  -8  -9 -12  -47.32   64.69
  -8  -9 -11   -5.03   61.42
  -8  -9 -10   51.84   46.97
  -8  -9 -10  141.03   60.42
  -8  -9  -9  161.00   68.66
  -8  -9  -9  106.50   58.61
  -8  -9  -9  179.84   50.36
  -8  -9  -9  235.57   57.34
  -8  -9  -8  327.41   69.52
  -8  -9  -8  284.76   51.42
  -8  -9  -8  273.78   31.11
  -8  -9  -8  406.73   66.47
  -8  -9  -8  214.17   57.61
  -8  -9  -7  257.54   59.92
  -8  -9  -7  285.96   60.60
  -8  -9  -7  244.47   35.58
  -8  -9  -7  229.65   57.88
  -8  -9  -6  225.59   55.81
  -8  -9  -6  246.86   47.98
  -8  -9  -6  232.47   56.52
  -8  -9  -6  203.83   41.88
  -8  -9  -6  167.95   55.91
  -8  -9  -5  344.13   48.48
  -8  -9  -5  353.32   57.29
  -8  -9  -5  437.52   53.51
  -8  -9  -4  546.82   50.44
  -8  -9  -3 1131.94   66.61
  -8  -9  -3  968.48   56.51
  -8  -9  -3 1181.37   67.86
  -8  -9  -2  594.61   59.24
  -8  -9  -2  513.93   47.70
  -8  -9  -2  629.96   64.37
  -8  -9  -1  115.39   39.99
  -8  -9  -1  191.97   62.29
  -8  -9  -1  187.38   53.63
  -8  -8 -13  275.80   52.53
  -8  -8 -12  489.67   56.37
  -8  -8 -12  480.81   67.33
  -8  -8 -11  338.93   62.34
  -8  -8 -10  289.75   46.14
  -8  -8 -10  310.96   59.53
  -8  -8  -9  564.03   66.96
  -8  -8  -9  411.86   50.66
  -8  -8  -9  536.43   56.47
  -8  -8  -9  473.37   59.88
  -8  -8  -8  931.34   69.58
  -8  -8  -8  815.13   63.40
  -8  -8  -8  917.92   59.14
  -8  -8  -8  856.44   55.97
  -8  -8  -8  893.80   63.56
  -8  -8  -7  897.50   67.25
  -8  -8  -7  847.08   42.76
  -8  -8  -7  954.83   65.89
  -8  -8  -7  966.02   58.50
  -8  -8  -7  885.41   62.88
  -8  -8  -6  553.13   58.66
  -8  -8  -6  561.03   53.15
  -8  -8  -6  576.36   57.79
  -8  -8  -6  550.73   42.20
  -8  -8  -6  587.15   58.76
  -8  -8  -5  374.28   53.03
  -8  -8  -5  394.18   51.95
  -8  -8  -5  443.88   53.24
  -8  -8  -4  487.82   54.31
  -8  -8  -4  441.66   55.61
  -8  -8  -3  618.91   57.96
  -8  -8  -2  572.44   55.41
  -8  -8  -2  731.61   64.38
  -8  -8  -1  102.50   58.49
  -8  -8  -1   80.93   49.38
  -8  -8   0  120.02   49.50
  -8  -7 -13  292.42   52.15
  -8  -7 -12  956.97   59.69
  -8  -7 -12  568.59   66.64
  -8  -7 -11  327.00   60.85
  -8  -7 -10   96.30   39.40
  -8  -7 -10  111.71   51.97
  -8  -7  -9  234.19   48.12
  -8  -7  -9  222.91   42.10
  -8  -7  -9  247.95   49.35
  -8  -7  -9  208.45   54.91
  -8  -7  -8  188.01   59.18
  -8  -7  -8  187.81   42.21
  -8  -7  -8  197.16   48.48
  -8  -7  -8  251.52   52.94
  -8  -7  -7  112.33   49.80
  -8  -7  -7   50.64   34.78
  -8  -7  -7  101.50   60.49
  -8  -7  -7  127.77   48.29
  -8  -7  -6  161.33   51.86
  -8  -7  -6  155.83   56.85
  -8  -7  -6  156.05   45.27
  -8  -7  -6  149.42   35.10
  -8  -7  -6  190.82   52.16
  -8  -7  -5   41.21   48.04
  -8  -7  -5   75.98   50.62
  -8  -7  -5   91.19   44.24
  -8  -7  -5   80.50   46.78
  -8  -7  -5   41.87   40.78
  -8  -7  -4   27.37   44.65
  -8  -7  -4  -29.78   47.76
  -8  -7  -4   13.12   45.88
  -8  -7  -3   48.28   45.08
  -8  -7  -3   15.69   46.52
  -8  -7  -1   69.41   45.82
  -8  -7   0   28.31   45.95
  -8  -7   1   53.06   46.42
  -8  -7   2  399.89   49.35
  -8  -6 -13  -13.98   48.28
  -8  -6 -13   41.50   60.19
  -8  -6 -12  -50.54   48.43
  -8  -6 -11   64.28   51.40
  -8  -6 -10  105.49   36.60
  -8  -6 -10   69.02   50.11
  -8  -6  -9   39.37   36.89
  -8  -6  -9   47.84   45.46
  -8  -6  -9    6.61   49.39
  -8  -6  -8  126.24   38.18
  -8  -6  -8  168.24   44.69
  -8  -6  -8  107.31   49.31
  -8  -6  -7  847.85   60.74
  -8  -6  -7  850.53   55.14
  -8  -6  -7  923.66   43.06
  -8  -6  -6  537.80   53.88
  -8  -6  -6  610.21   39.83
  -8  -6  -6  612.04   56.00
  -8  -6  -6  559.37   50.38
  -8  -6  -5   92.87   44.24
  -8  -6  -5  136.33   37.21
  -8  -6  -5   97.90   45.65
  -8  -6  -5  105.09   44.22
  -8  -6  -5   98.18   41.40
  -8  -6  -5   60.56   42.92
  -8  -6  -4  361.21   43.51
  -8  -6  -4  361.87   48.44
  -8  -6  -4  400.00   42.61
  -8  -6  -4  343.30   45.03
  -8  -6  -3  488.48   47.39
  -8  -6  -3  574.69   50.45
  -8  -6  -2 1077.01   58.21
  -8  -6  -2 1095.18   58.16
  -8  -6  -1  878.84   56.46
  -8  -6   0  551.46   49.65
  -8  -6   1  275.45   46.79
  -8  -6   2  514.29   51.21
  -8  -6   2  548.98   69.48
  -8  -6   3  427.20   48.12
  -8  -6   3  488.18   72.56
  -8  -5 -13  196.91   52.37
  -8  -5 -13  156.93   60.34
  -8  -5 -12  630.61   55.95
  -8  -5 -11  957.82   63.31
  -8  -5 -10  375.64   35.17
  -8  -5 -10  416.11   52.38
  -8  -5  -9  430.46   37.67
  -8  -5  -9  462.37   48.30
  -8  -5  -9  412.54   52.63
  -8  -5  -8  684.27   42.33
  -8  -5  -8  727.91   51.57
  -8  -5  -8  773.46   56.43
  -8  -5  -7 1132.26   57.34
  -8  -5  -7 1170.17   61.30
  -8  -5  -6  967.28   46.39
  -8  -5  -6 1153.26   55.75
  -8  -5  -6 1107.16   57.29
  -8  -5  -5  456.51   45.18
  -8  -5  -5  494.84   46.43
  -8  -5  -5  507.06   43.24
  -8  -5  -5  497.27   44.37
  -8  -5  -4  584.12   43.77
  -8  -5  -4  585.20   48.50
  -8  -5  -4  582.92   42.55
  -8  -5  -4  618.80   46.16
  -8  -5  -4  635.86   46.54
  -8  -5  -3  645.10   39.32
  -8  -5  -3  647.03   48.53
  -8  -5  -3  604.87   40.09
  -8  -5  -3  582.22   46.20
  -8  -5  -3  639.66   48.11
  -8  -5  -2  381.96   44.81
  -8  -5  -2  340.01   44.48
  -8  -5  -1  244.88   43.87
  -8  -5   0  272.46   46.18
  -8  -5   0  285.02   54.85
  -8  -5   1  314.98   61.25
  -8  -5   1  215.78   42.37
  -8  -5   2   88.41   63.07
  -8  -5   3   12.02   66.12
  -8  -5   3   16.95   42.45
  -8  -5   4   61.36   67.98
  -8  -5   4   15.82   42.59
  -8  -4 -13  478.83   60.25
  -8  -4 -13  423.98   61.25
  -8  -4 -12  379.64   55.89
  -8  -4 -12  419.18   57.67
  -8  -4 -11  326.04   49.79
  -8  -4 -10  156.56   49.67
  -8  -4 -10  170.76   29.34
  -8  -4  -9  156.95   48.06
  -8  -4  -9  107.19   43.96
  -8  -4  -9  120.82   30.61
  -8  -4  -8  525.82   49.86
  -8  -4  -8  501.62   47.17
  -8  -4  -8  436.08   37.58
  -8  -4  -7   37.11   40.68
  -8  -4  -7   20.87   42.07
  -8  -4  -7   19.54   33.30
  -8  -4  -6    3.39   38.91
  -8  -4  -6   62.68   40.12
  -8  -4  -5   79.66   38.31
  -8  -4  -5   34.70   35.87
  -8  -4  -5   76.46   34.15
  -8  -4  -4   34.68   37.86
  -8  -4  -4   64.75   34.82
  -8  -4  -4   70.00   35.38
  -8  -4  -3  222.61   34.21
  -8  -4  -3  185.01   39.08
  -8  -4  -3  185.26   34.66
  -8  -4  -3  144.05   37.77
  -8  -4  -3  288.45   39.17
  -8  -4  -2  132.47   29.19
  -8  -4  -2  121.15   38.86
  -8  -4  -2   99.70   29.43
  -8  -4  -2   97.08   37.21
  -8  -4  -2   95.97   38.96
  -8  -4  -1  243.56   39.99
  -8  -4  -1  305.41   43.51
  -8  -4  -1  288.52   41.35
  -8  -4   0  136.22   41.14
  -8  -4   0  117.51   42.42
  -8  -4   1   52.59   41.07
  -8  -4   1   76.68   54.26
  -8  -4   1   48.95   37.65
  -8  -4   2  105.81   45.40
  -8  -4   2  131.54   59.80
  -8  -4   2  120.14   39.58
  -8  -4   3  206.87   65.06
  -8  -4   3  245.51   42.25
  -8  -4   4  320.62   68.49
  -8  -4   4  236.50   41.81
  -8  -3 -13   53.33   57.01
  -8  -3 -13   73.55   54.11
  -8  -3 -12   67.75   56.05
  -8  -3 -12  -56.58   51.65
  -8  -3 -11  143.33   50.24
  -8  -3 -10  134.44   25.90
  -8  -3  -9  187.33   29.56
  -8  -3  -9  176.56   44.92
  -8  -3  -9  219.07   45.48
  -8  -3  -8   77.52   29.57
  -8  -3  -8   26.47   42.52
  -8  -3  -8   68.37   41.26
  -8  -3  -7  178.95   42.12
  -8  -3  -7  188.64   42.18
  -8  -3  -6 1268.38   55.35
  -8  -3  -6 1087.93   54.03
  -8  -3  -5 1355.61   55.48
  -8  -3  -5 1235.78   55.24
  -8  -3  -4  570.02   41.32
  -8  -3  -4  583.87   44.45
  -8  -3  -3  526.52   40.31
  -8  -3  -3  528.92   41.59
  -8  -3  -3  467.05   42.21
  -8  -3  -2  632.41   46.93
  -8  -3  -2  580.71   43.38
  -8  -3  -2  598.51   43.30
  -8  -3  -1  633.02   26.20
  -8  -3  -1  731.35   45.74
  -8  -3  -1  708.24   45.76
  -8  -3   0  815.54   48.08
  -8  -3   0  807.99   48.49
  -8  -3   2  253.42   43.72
  -8  -3   2  266.29   40.69
  -8  -3   3  365.60   44.11
  -8  -3   3  552.12   65.08
  -8  -3   3  438.36   49.44
  -8  -3   3  433.85   45.62
  -8  -3   4  318.69   64.12
  -8  -3   4  253.35   44.96
  -8  -3   4  283.34   40.36
  -8  -3   5  276.37   67.27
  -8  -3   5  227.89   46.89
  -8  -3   5  220.94   41.60
  -8  -2 -12  355.02   59.19
  -8  -2 -12  374.09   53.93
  -8  -2 -12  339.26   52.58
  -8  -2 -11  679.19   62.72
  -8  -2 -11  614.65   56.89
  -8  -2 -10  584.17   27.46
  -8  -2  -9  635.47   52.89
  -8  -2  -9  593.47   49.68
  -8  -2  -8  424.38   46.68
  -8  -2  -8  390.86   44.62
  -8  -2  -7  451.43   47.06
  -8  -2  -7  458.75   43.49
  -8  -2  -6  774.85   48.74
  -8  -2  -6  719.09   45.69
  -8  -2  -5  784.31   47.01
  -8  -2  -5  811.26   46.71
  -8  -2  -5  748.62   46.20
  -8  -2  -4  839.75   45.36
  -8  -2  -4  837.49   48.78
  -8  -2  -4  971.76   46.60
  -8  -2  -4  813.37   47.35
  -8  -2  -3  736.03   42.69
  -8  -2  -3  725.31   47.40
  -8  -2  -3  721.80   43.94
  -8  -2  -3  748.87   43.68
  -8  -2  -2  340.66   40.40
  -8  -2  -2  288.80   42.12
  -8  -2  -2  332.33   38.17
  -8  -2  -2  286.19   38.41
  -8  -2  -1  234.38   42.60
  -8  -2  -1  151.66   35.90
  -8  -2  -1  154.70   37.25
  -8  -2  -1  200.37   42.53
  -8  -2   0  178.65   35.80
  -8  -2   0  268.87   38.67
  -8  -2   0  264.33   44.93
  -8  -2   1  340.80   46.55
  -8  -2   1  232.45   38.42
  -8  -2   3   82.17   38.46
  -8  -2   3  189.75   38.42
  -8  -2   3   86.86   40.64
  -8  -2   4   33.33   37.97
  -8  -2   4   46.87   41.23
  -8  -2   5   49.93   38.59
  -8  -2   5  200.06   43.51
  -8  -2   5   20.41   59.78
  -8  -2   5   58.09   42.27
  -8  -2   6   36.66   40.19
  -8  -2   6  178.48   45.33
  -8  -2   6   61.50   65.19
  -8  -2   6  142.42   42.35
  -8  -1 -12  309.63   51.14
  -8  -1 -12  328.12   62.28
  -8  -1 -12  331.04   52.87
  -8  -1 -11  218.91   58.27
  -8  -1 -11  164.78   49.29
  -8  -1 -10  177.42   45.75
  -8  -1  -9  208.71   51.95
  -8  -1  -8  221.86   49.20
  -8  -1  -8  196.21   41.05
  -8  -1  -7  233.67   39.71
  -8  -1  -7  321.20   45.00
  -8  -1  -7  303.96   40.67
  -8  -1  -6   65.58   39.66
  -8  -1  -6   71.58   36.40
  -8  -1  -5  148.57   37.07
  -8  -1  -5  234.49   36.50
  -8  -1  -4  112.42   38.10
  -8  -1  -4  139.32   39.09
  -8  -1  -4   73.58   34.20
  -8  -1  -4  114.44   34.65
  -8  -1  -3  323.78   41.12
  -8  -1  -3  374.99   41.45
  -8  -1  -3  371.84   38.56
  -8  -1  -3  303.94   37.61
  -8  -1  -2   75.75   36.94
  -8  -1  -2   23.83   35.76
  -8  -1  -2   83.00   38.95
  -8  -1  -1   57.53   39.71
  -8  -1  -1   53.08   35.19
  -8  -1  -1   71.98   39.27
  -8  -1   0  241.36   44.61
  -8  -1   0  246.72   38.22
  -8  -1   0  279.07   42.74
  -8  -1   1   87.00   43.23
  -8  -1   1  110.33   47.67
  -8  -1   2  134.43   46.08
  -8  -1   3  127.87   37.76
  -8  -1   3   68.45   23.03
  -8  -1   3   22.33   48.61
  -8  -1   3   81.52   39.34
  -8  -1   4  193.32   35.64
  -8  -1   4  289.41   43.93
  -8  -1   4  191.52   32.62
  -8  -1   4  191.20   53.74
  -8  -1   4  184.55   41.37
  -8  -1   5   11.22   39.98
  -8  -1   5  102.45   40.82
  -8  -1   5  112.96   42.17
  -8  -1   5  152.27   45.15
  -8  -1   6    0.24   44.76
  -8  -1   6  135.82   50.35
  -8  -1   6   24.33   34.75
  -8  -1   6  118.33   50.07
  -8  -1   6  127.70   43.43
  -8   0 -12   85.41   47.81
  -8   0 -12   56.25   58.92
  -8   0 -12   85.98   48.49
  -8   0 -11  178.30   57.98
  -8   0 -11   62.63   46.95
  -8   0 -10  344.08   46.54
  -8   0  -9  195.98   33.80
  -8   0  -9  347.24   55.03
  -8   0  -9  276.05   42.99
  -8   0  -8  191.24   35.62
  -8   0  -8  305.98   51.06
  -8   0  -7  120.17   45.87
  -8   0  -7   63.40   37.11
  -8   0  -6  230.23   43.03
  -8   0  -6  233.00   37.97
  -8   0  -5  529.34   43.55
  -8   0  -5  707.91   41.88
  -8   0  -4  509.10   40.45
  -8   0  -4  540.91   40.98
  -8   0  -3  114.34   34.21
  -8   0  -3  133.72   39.32
  -8   0  -2  613.73   45.94
  -8   0  -2  586.82   43.37
  -8   0  -2  695.09   43.99
  -8   0  -1  628.54   44.85
  -8   0  -1  550.56   43.74
  -8   0  -1  510.33   42.60
  -8   0   0  226.53   42.95
  -8   0   0  165.16   39.72
  -8   0   0  122.18   36.67
  -8   0   1  486.62   46.85
  -8   0   1  411.64   45.47
  -8   0   1  336.25   42.15
  -8   0   1  435.64   38.11
  -8   0   2  777.94   53.63
  -8   0   2  856.85   55.70
  -8   0   2  738.76   43.91
  -8   0   3  621.07   54.26
  -8   0   3  543.19   46.99
  -8   0   4  342.04   54.53
  -8   0   4  260.83   43.90
  -8   0   5  138.80   29.00
  -8   0   5   99.75   46.68
  -8   0   5  204.73   34.01
  -8   0   5  199.58   57.04
  -8   0   5  185.17   41.84
  -8   0   6   15.50   38.60
  -8   0   6  137.42   35.07
  -8   0   6  158.46   41.82
  -8   0   6  121.31   39.57
  -8   0   6   51.57   49.17
  -8   0   7  220.55   41.96
  -8   0   7  173.51   54.64
  -8   0   7  314.92   47.79
  -8   0   7  178.90   38.03
  -8   1 -11  438.76   65.39
  -8   1 -11  343.57   49.85
  -8   1 -10  374.76   46.94
  -8   1  -9  426.78   57.17
  -8   1  -9  356.74   44.09
  -8   1  -8  669.37   57.70
  -8   1  -8  479.36   45.25
  -8   1  -7  653.34   55.30
  -8   1  -6  430.34   47.98
  -8   1  -6  324.72   38.32
  -8   1  -5  488.40   46.92
  -8   1  -4  532.86   43.36
  -8   1  -3  694.73   46.74
  -8   1  -3  535.54   42.70
  -8   1  -2  678.86   47.52
  -8   1  -2  600.26   44.35
  -8   1  -1  425.20   44.81
  -8   1  -1  369.35   39.97
  -8   1   0  204.05   41.42
  -8   1   0  138.86   36.91
  -8   1   1  383.81   43.09
  -8   1   1  273.39   39.69
  -8   1   1  295.87   35.21
  -8   1   2  471.73   47.08
  -8   1   2  506.61   48.59
  -8   1   2  470.88   39.66
  -8   1   3  183.16   47.73
  -8   1   3  185.32   46.37
  -8   1   3  132.85   36.88
  -8   1   3  137.50   40.04
  -8   1   4   55.52   50.72
  -8   1   4   28.30   19.33
  -8   1   4   39.42   37.59
  -8   1   4   97.56   51.08
  -8   1   5   10.05   27.56
  -8   1   5   47.76   24.43
  -8   1   5  128.49   55.30
  -8   1   5   70.29   37.17
  -8   1   6  -32.25   48.83
  -8   1   6   23.11   30.51
  -8   1   6   13.16   33.38
  -8   1   6   30.72   36.52
  -8   1   7   41.71   40.12
  -8   1   7   44.78   39.58
  -8   1   7   78.98   35.89
  -8   1   7   64.49   34.64
  -8   2 -10  171.48   43.39
  -8   2 -10  134.71   31.19
  -8   2  -9  156.30   40.30
  -8   2  -8  336.30   57.57
  -8   2  -8  231.76   42.73
  -8   2  -7  488.76   54.75
  -8   2  -6  247.68   47.86
  -8   2  -5   96.93   41.55
  -8   2  -4   26.12   38.13
  -8   2  -4  -28.43   32.85
  -8   2  -3   65.76   38.02
  -8   2  -3   11.12   27.91
  -8   2  -2  186.54   40.32
  -8   2  -2  262.69   42.70
  -8   2  -1   30.49   17.86
  -8   2  -1    4.17   37.48
  -8   2  -1   52.88   41.99
  -8   2   0   71.13   31.43
  -8   2   0   -4.29   37.48
  -8   2   0  -53.98   41.52
  -8   2   1   27.81   32.15
  -8   2   1  -61.06   38.78
  -8   2   1    5.06   38.67
  -8   2   2   18.53   37.45
  -8   2   2   17.36   41.92
  -8   2   3  -18.17   39.21
  -8   2   3  -14.13   44.92
  -8   2   3  -49.34   37.59
  -8   2   4   76.20   50.51
  -8   2   4   45.48   41.30
  -8   2   4  111.94   49.22
  -8   2   4  106.06   38.09
  -8   2   4  -12.72   20.49
  -8   2   5  -18.36   53.83
  -8   2   5   51.56   51.97
  -8   2   5   33.38   37.55
  -8   2   5   17.02   26.32
  -8   2   6   17.44   30.84
  -8   2   6   40.01   31.81
  -8   2   6   33.56   37.50
  -8   2   6    6.47   58.62
  -8   2   7   10.39   35.63
  -8   2   7   94.48   36.73
  -8   2   7   45.76   34.14
  -8   2   7   71.07   64.31
  -8   2   8    2.99   40.72
  -8   2   8   69.27   41.94
  -8   2   8   52.45   25.61
  -8   3 -10   74.81   41.03
  -8   3 -10   83.44   34.47
  -8   3  -9   73.01   40.09
  -8   3  -9  108.27   38.45
  -8   3  -8  106.45   55.22
  -8   3  -8   45.67   40.12
  -8   3  -7   38.44   50.34
  -8   3  -7  101.49   38.73
  -8   3  -6   52.92   47.72
  -8   3  -5   45.49   43.59
  -8   3  -4  204.67   42.36
  -8   3  -4  156.21   37.16
  -8   3  -3  200.98   41.02
  -8   3  -3  171.36   32.41
  -8   3  -2  198.67   41.36
  -8   3  -2  124.72   29.14
  -8   3  -1  213.39   26.79
  -8   3  -1  266.91   42.42
  -8   3   0  111.17   22.00
  -8   3   0  297.87   44.91
  -8   3   0  225.22   41.42
  -8   3   0  225.59   34.01
  -8   3   1   54.09   18.12
  -8   3   1   47.39   44.87
  -8   3   1  113.59   41.22
  -8   3   1  106.63   34.86
  -8   3   2  198.47   45.60
  -8   3   2   27.27   16.61
  -8   3   2   26.82   14.56
  -8   3   2  200.90   37.90
  -8   3   3  101.38   19.07
  -8   3   3  203.26   41.70
  -8   3   3  287.46   41.28
  -8   3   4  133.15   23.54
  -8   3   4  239.33   41.24
  -8   3   4  180.50   44.88
  -8   3   5   89.03   27.59
  -8   3   5  197.99   55.07
  -8   3   5  160.25   39.13
  -8   3   5   53.50   45.35
  -8   3   6   70.59   32.36
  -8   3   6   75.93   37.73
  -8   3   6   74.12   57.43
  -8   3   7   45.92   36.16
  -8   3   7   72.08   33.24
  -8   3   7  161.62   63.61
  -8   3   8  139.70   41.78
  -8   3   8   63.18   24.14
  -8   4  -9   59.44   41.45
  -8   4  -9  102.09   40.40
  -8   4  -8  100.40   57.45
  -8   4  -8   93.73   39.87
  -8   4  -7  176.01   54.98
  -8   4  -6  488.51   55.87
  -8   4  -5  318.53   49.15
  -8   4  -4  163.55   44.66
  -8   4  -4  152.07   38.48
  -8   4  -3  148.12   41.88
  -8   4  -3  132.46   36.14
  -8   4  -2  315.60   45.01
  -8   4  -2  252.61   34.88
  -8   4  -1  647.36   38.38
  -8   4  -1  714.10   51.58
  -8   4   0  234.81   28.25
  -8   4   0  327.96   46.53
  -8   4   0  357.80   37.78
  -8   4   1   27.63   20.81
  -8   4   1  -18.75   23.43
  -8   4   1   69.65   46.87
  -8   4   1   33.75   41.82
  -8   4   1   30.48   36.29
  -8   4   2  -24.63   48.46
  -8   4   2   77.67   19.86
  -8   4   2    4.52   22.42
  -8   4   2   18.85   38.30
  -8   4   3  168.47   41.70
  -8   4   3  165.70   41.06
  -8   4   4  103.20   41.39
  -8   4   4  114.10   43.19
  -8   4   5   57.74   27.56
  -8   4   5   44.73   39.36
  -8   4   5  -19.37   44.48
  -8   4   6    7.16   31.42
  -8   4   6   31.46   36.86
  -8   4   6   52.91   57.32
  -8   4   7    3.33   35.15
  -8   4   7   39.25   33.09
  -8   4   7   45.95   62.07
  -8   4   8    9.60   38.92
  -8   5  -8   84.98   45.76
  -8   5  -8   90.92   61.00
  -8   5  -8   72.60   40.38
  -8   5  -7  148.88   58.35
  -8   5  -6  198.13   56.48
  -8   5  -5  315.03   52.37
  -8   5  -4   35.58   41.82
  -8   5  -4   70.65   46.34
  -8   5  -3   46.63   37.88
  -8   5  -3   -7.86   43.35
  -8   5  -2   42.36   34.43
  -8   5  -2  -27.29   42.52
  -8   5  -1  122.70   33.07
  -8   5  -1   49.46   42.93
  -8   5   0  146.98   37.47
  -8   5   0   75.20   31.84
  -8   5   0   59.70   28.81
  -8   5   0    5.27   43.88
  -8   5   1   61.02   37.11
  -8   5   1   11.92   24.73
  -8   5   1  -18.55   28.72
  -8   5   1   55.52   43.00
  -8   5   2   53.62   52.75
  -8   5   2  -66.43   40.27
  -8   5   2   29.31   26.72
  -8   5   2   48.48   23.51
  -8   5   3  -53.01   41.75
  -8   5   3    0.35   41.60
  -8   5   3  -50.14   55.63
  -8   5   4  -27.37   42.98
  -8   5   4    9.00   40.54
  -8   5   4  -64.31   58.61
  -8   5   5  -11.02   44.24
  -8   5   5  108.20   57.41
  -8   5   5   54.70   42.78
  -8   5   6   30.08   59.94
  -8   5   6    0.56   38.93
  -8   5   6    5.97   33.56
  -8   5   7   62.53   36.85
  -8   5   7   20.47   35.27
  -8   5   8   94.23   39.29
  -8   6  -7    7.90   59.44
  -8   6  -7   54.15   48.12
  -8   6  -6   60.74   58.29
  -8   6  -5   23.92   53.81
  -8   6  -4    6.13   47.59
  -8   6  -4   21.87   50.78
  -8   6  -3   41.96   40.83
  -8   6  -3   22.24   47.80
  -8   6  -2   17.11   37.18
  -8   6  -2    9.28   46.18
  -8   6  -1   62.50   36.18
  -8   6  -1   -2.17   34.95
  -8   6  -1   49.43   46.74
  -8   6   0  214.46   40.10
  -8   6   0  114.04   35.27
  -8   6   0  104.56   32.59
  -8   6   0  103.58   46.89
  -8   6   1  168.91   40.56
  -8   6   1  101.50   29.86
  -8   6   1   64.00   33.87
  -8   6   1  144.99   47.84
  -8   6   2   63.35   43.15
  -8   6   2   89.22   28.00
  -8   6   2   71.86   31.70
  -8   6   3  210.79   46.72
  -8   6   3  202.10   49.46
  -8   6   3  181.80   32.98
  -8   6   4  269.39   48.46
  -8   6   4  263.63   50.24
  -8   6   5  131.37   64.94
  -8   6   5  119.42   47.02
  -8   6   6   81.65   43.62
  -8   6   7   80.09   37.48
  -8   6   7   68.38   38.63
  -8   6   8  112.90   41.90
  -8   7  -6  165.11   62.32
  -8   7  -6  157.89   51.83
  -8   7  -5  347.42   58.21
  -8   7  -5  382.41   63.59
  -8   7  -4  146.95   48.87
  -8   7  -4   76.91   56.12
  -8   7  -3  148.50   46.23
  -8   7  -3  104.40   54.34
  -8   7  -2   83.89   42.35
  -8   7  -2  162.65   53.90
  -8   7  -1  188.31   40.10
  -8   7  -1  215.31   43.33
  -8   7  -1  223.73   54.68
  -8   7   0  183.04   41.58
  -8   7   0  243.24   39.05
  -8   7   0  239.11   55.00
  -8   7   0  334.82   43.83
  -8   7   1  144.47   39.24
  -8   7   1  151.39   35.69
  -8   7   1  225.87   52.70
  -8   7   2  108.82   33.50
  -8   7   2   61.12   37.28
  -8   7   2  106.01   46.18
  -8   7   3  117.02   36.83
  -8   7   3   98.33   51.74
  -8   7   3   64.78   47.23
  -8   7   4  267.43   52.33
  -8   7   4  509.90   66.71
  -8   7   5  201.70   51.40
  -8   7   6   68.95   45.39
  -8   7   8  -61.10   71.96
  -8   8  -4  117.67   60.63
  -8   8  -4  194.91   55.25
  -8   8  -3   67.37   57.60
  -8   8  -3   72.14   51.39
  -8   8  -2   83.51   56.30
  -8   8  -2   53.99   46.73
  -8   8  -1   31.53   56.07
  -8   8  -1   14.84   42.21
  -8   8  -1   32.04   44.74
  -8   8   0   42.51   55.99
  -8   8   0   93.25   40.60
  -8   8   0   48.10   43.01
  -8   8   1   16.14   53.53
  -8   8   1   18.59   43.48
  -8   8   1   -9.93   37.14
  -8   8   2   65.63   37.15
  -8   8   2    7.12   42.43
  -8   8   3  -10.40   52.33
  -8   8   3   57.16   40.81
  -8   8   4   51.24   52.26
  -8   8   5   48.09   51.12
  -8   9  -2   31.86   58.66
  -8   9  -2  -33.86   52.98
  -8   9  -1   95.22   59.43
  -8   9  -1   33.45   49.09
  -8   9   0  114.59   58.86
  -8   9   0   93.34   46.33
  -8   9   0   16.60   48.04
  -8   9   1   81.96   43.31
  -8   9   1   21.60   48.23
  -8   9   2   72.33   41.67
  -8   9   2    1.80   47.38
  -8   9   3   94.37   57.35
  -8   9   3   51.44   46.84
  -8   9   4  150.41   56.02
  -8   9   4  182.38   49.56
  -8  10   0  194.45   57.33
  -8  10   0  220.07   63.80
  -8  10   1   92.05   56.17
  -8  10   2  165.70   55.88
  -8  10   3  120.31   54.16
  -8  10   3  124.98   47.29
  -8  10   4  111.27   53.07
  -7 -11 -11   45.12   61.21
  -7 -11 -10  157.08   62.24
  -7 -11  -9   99.59   60.85
  -7 -11  -8   91.21   60.39
  -7 -11  -7   35.78   58.02
  -7 -11  -5  172.93   45.78
  -7 -11  -5  150.25   48.64
  -7 -11  -4  219.86   47.05
  -7 -11  -4  269.24   53.38
  -7 -11  -4  133.71   58.59
  -7 -10 -12  196.43   54.80
  -7 -10 -12  172.08   62.46
  -7 -10 -11   51.28   54.48
  -7 -10 -11   90.65   60.92
  -7 -10 -10  344.89   62.94
  -7 -10  -9  397.00   63.15
  -7 -10  -8  386.56   60.00
  -7 -10  -8  457.36   55.90
  -7 -10  -7  243.53   56.96
  -7 -10  -7  206.24   32.61
  -7 -10  -7  183.67   57.54
  -7 -10  -6   34.30   54.42
  -7 -10  -6   91.50   45.17
  -7 -10  -5  148.53   44.42
  -7 -10  -5  113.26   45.27
  -7 -10  -4  449.01   47.72
  -7 -10  -4  391.68   52.70
  -7 -10  -3  579.20   48.11
  -7 -10  -3  551.83   61.69
  -7 -10  -3  547.35   58.83
  -7 -10  -2  172.39   41.43
  -7 -10  -2  218.97   58.06
  -7 -10  -2  234.81   55.49
  -7  -9 -13  333.32   51.75
  -7  -9 -13  327.93   65.25
  -7  -9 -12  315.89   52.17
  -7  -9 -12  346.25   64.01
  -7  -9 -11   21.95   49.51
  -7  -9 -11   68.68   57.62
  -7  -9 -10   75.21   57.10
  -7  -9  -9  331.95   49.50
  -7  -9  -9  240.08   60.27
  -7  -9  -8  124.89   47.01
  -7  -9  -8  158.49   46.98
  -7  -9  -8   87.35   53.11
  -7  -9  -7  123.10   45.74
  -7  -9  -7   64.23   28.19
  -7  -9  -7  105.75   53.28
  -7  -9  -6   53.40   46.66
  -7  -9  -6   33.16   49.43
  -7  -9  -5   79.28   48.79
  -7  -9  -5   41.98   41.95
  -7  -9  -5   30.71   50.34
  -7  -9  -4   59.23   39.24
  -7  -9  -4   34.40   47.70
  -7  -9  -3  140.95   40.31
  -7  -9  -3  120.68   53.34
  -7  -9  -2   98.67   38.19
  -7  -9  -2   85.36   52.37
  -7  -9  -2   85.28   49.39
  -7  -9  -1   66.87   36.32
  -7  -9  -1  110.60   57.12
  -7  -9  -1  125.97   49.97
  -7  -9   0  -12.41   34.52
  -7  -9   0   38.40   62.22
  -7  -9   0   -4.08   50.60
  -7  -8 -13   51.36   46.83
  -7  -8 -12   53.47   46.61
  -7  -8 -12   -3.38   57.25
  -7  -8 -11   16.78   45.93
  -7  -8 -11    2.74   55.99
  -7  -8 -10   54.02   54.70
  -7  -8  -9    7.60   41.11
  -7  -8  -9   47.93   43.80
  -7  -8  -9   37.60   45.67
  -7  -8  -9   95.32   51.28
  -7  -8  -8  185.01   51.09
  -7  -8  -8  186.87   44.95
  -7  -8  -8  143.37   44.40
  -7  -8  -7  316.14   29.97
  -7  -8  -7  380.07   52.69
  -7  -8  -7  386.04   47.17
  -7  -8  -6  233.37   49.19
  -7  -8  -6  190.68   34.25
  -7  -8  -6  219.75   43.68
  -7  -8  -6  207.36   46.18
  -7  -8  -5  248.65   47.35
  -7  -8  -5  307.96   49.99
  -7  -8  -4  368.71   50.26
  -7  -8  -4  375.72   51.73
  -7  -8  -4  382.45   46.69
  -7  -8  -3  646.47   55.06
  -7  -8  -3  697.37   55.82
  -7  -8  -2  669.71   53.85
  -7  -8  -2  700.56   56.80
  -7  -8  -1  759.63   55.49
  -7  -8   0  249.21   47.85
  -7  -8   1  451.60   38.18
  -7  -8   1  437.77   51.81
  -7  -7 -13  247.02   47.41
  -7  -7 -12  421.77   50.30
  -7  -7 -12  403.60   60.94
  -7  -7 -11  442.38   48.03
  -7  -7 -11  480.80   58.08
  -7  -7 -10  174.87   46.37
  -7  -7 -10  217.13   52.39
  -7  -7  -9  421.37   42.02
  -7  -7  -9  431.56   49.17
  -7  -7  -9  384.55   52.35
  -7  -7  -9  403.80   47.67
  -7  -7  -8  737.83   46.33
  -7  -7  -8  802.57   54.14
  -7  -7  -8  819.00   52.63
  -7  -7  -8  713.77   56.08
  -7  -7  -7 1116.28   40.94
  -7  -7  -7 1365.46   63.94
  -7  -7  -6  852.16   49.72
  -7  -7  -6  715.06   36.34
  -7  -7  -6  780.07   54.85
  -7  -7  -5  714.19   51.15
  -7  -7  -5  685.90   52.75
  -7  -7  -4  450.85   47.59
  -7  -7  -4  520.91   49.85
  -7  -7  -3  976.47   56.26
  -7  -7  -3 1011.04   55.52
  -7  -7  -2  797.42   55.34
  -7  -7  -1  433.56   51.78
  -7  -7  -1  388.52   46.88
  -7  -7   0  147.52   44.89
  -7  -7   1   27.75   41.85
  -7  -7   2  106.70   44.27
  -7  -7   3   45.44   66.20
  -7  -7   3   47.45   42.10
  -7  -6 -13  266.32   48.00
  -7  -6 -13  304.88   59.38
  -7  -6 -12  528.60   50.35
  -7  -6 -11  548.77   50.32
  -7  -6 -11  724.53   56.21
  -7  -6 -11  720.80   58.36
  -7  -6 -10  241.29   45.96
  -7  -6 -10  228.14   49.18
  -7  -6  -9  219.81   42.50
  -7  -6  -9  145.37   36.02
  -7  -6  -9  199.93   42.39
  -7  -6  -9  194.23   47.73
  -7  -6  -8  385.16   39.53
  -7  -6  -8  393.09   45.13
  -7  -6  -8  406.22   49.17
  -7  -6  -7  249.73   42.02
  -7  -6  -7  260.68   45.76
  -7  -6  -6  172.84   28.87
  -7  -6  -6  177.67   38.11
  -7  -6  -6  141.59   42.03
  -7  -6  -6  143.78   43.98
  -7  -6  -5  160.48   38.11
  -7  -6  -5  151.59   31.79
  -7  -6  -5  141.99   42.85
  -7  -6  -4  137.21   37.91
  -7  -6  -4  165.96   43.26
  -7  -6  -3    0.73   37.30
  -7  -6  -3   10.41   40.11
  -7  -6  -2   10.35   38.82
  -7  -6  -2   -8.62   39.84
  -7  -6  -1   72.58   40.67
  -7  -6   0   30.20   42.73
  -7  -6   0    7.64   49.02
  -7  -6   0   57.90   41.22
  -7  -6   1   46.42   44.60
  -7  -6   1  -45.93   55.15
  -7  -6   1   61.56   40.64
  -7  -6   2  239.14   60.83
  -7  -6   2  186.80   43.10
  -7  -6   3  387.53   67.04
  -7  -6   3  468.14   44.82
  -7  -6   4  259.67   68.19
  -7  -6   4  239.36   41.47
  -7  -5 -13  -36.77   49.07
  -7  -5 -13   17.79   55.05
  -7  -5 -12  -23.76   45.44
  -7  -5 -12   58.77   51.62
  -7  -5 -11   67.76   45.52
  -7  -5 -10   47.99   41.85
  -7  -5 -10   32.62   45.42
  -7  -5  -9   13.74   30.33
  -7  -5  -9    6.42   39.11
  -7  -5  -9   18.62   44.15
  -7  -5  -8  162.62   32.58
  -7  -5  -8  143.81   38.66
  -7  -5  -8  184.96   44.19
  -7  -5  -7  604.53   45.11
  -7  -5  -7  629.16   49.48
  -7  -5  -6  705.68   37.71
  -7  -5  -6  686.92   50.48
  -7  -5  -6  820.35   47.23
  -7  -5  -6  747.49   42.34
  -7  -5  -5  351.67   41.71
  -7  -5  -5  307.34   38.48
  -7  -5  -5  359.22   36.79
  -7  -5  -4  398.73   38.41
  -7  -5  -4  407.29   41.09
  -7  -5  -3  926.07   47.38
  -7  -5  -3  850.42   47.97
  -7  -5  -2 1348.68   56.04
  -7  -5  -2 1315.11   55.00
  -7  -5  -1 1159.06   54.73
  -7  -5  -1 1156.73   51.96
  -7  -5  -1 1285.27   59.63
  -7  -5   0  902.48   52.11
  -7  -5   0  946.45   60.04
  -7  -5   1  418.16   47.00
  -7  -5   1  430.76   41.77
  -7  -5   1  419.92   58.20
  -7  -5   2  339.96   47.98
  -7  -5   2  344.63   41.37
  -7  -5   2  386.88   58.85
  -7  -5   3  606.73   45.61
  -7  -5   3  631.53   67.02
  -7  -5   4  493.38   45.82
  -7  -5   4  680.29   70.81
  -7  -5   5  349.45   69.63
  -7  -5   5  267.52   38.60
  -7  -4 -13   84.14   52.10
  -7  -4 -13   83.76   55.92
  -7  -4 -12  498.48   56.42
  -7  -4 -12  544.53   58.66
  -7  -4 -11 1055.97   59.44
  -7  -4 -11 1203.59   62.24
  -7  -4 -10 1326.85   60.72
  -7  -4 -10 1241.93   62.25
  -7  -4  -9  475.93   30.77
  -7  -4  -9  492.12   45.17
  -7  -4  -9  468.82   48.65
  -7  -4  -8  772.73   37.29
  -7  -4  -8  880.73   48.70
  -7  -4  -8  830.78   51.52
  -7  -4  -7 1376.36   56.23
  -7  -4  -7 1424.91   59.25
  -7  -4  -6 1828.34   63.53
  -7  -4  -6 1916.10   64.67
  -7  -4  -5 1370.59   49.58
  -7  -4  -5 1268.16   51.75
  -7  -4  -5 1241.85   53.99
  -7  -4  -4 1210.49   48.01
  -7  -4  -4 1145.13   47.99
  -7  -4  -4 1111.65   49.93
  -7  -4  -3 1031.25   40.95
  -7  -4  -3 1077.48   46.95
  -7  -4  -3 1093.09   48.45
  -7  -4  -3 1129.59   47.66
  -7  -4  -3 1081.50   47.21
  -7  -4  -2  836.96   44.20
  -7  -4  -2  898.43   44.97
  -7  -4  -1  527.64   39.92
  -7  -4  -1  482.02   39.86
  -7  -4   0  156.99   37.52
  -7  -4   0  152.51   35.92
  -7  -4   0  272.14   48.63
  -7  -4   1  265.61   41.55
  -7  -4   1  329.05   52.13
  -7  -4   2  196.40   42.29
  -7  -4   2  164.49   53.82
  -7  -4   2  192.08   37.21
  -7  -4   3   97.50   44.02
  -7  -4   3   51.42   56.12
  -7  -4   3   49.56   35.45
  -7  -4   4   22.55   60.26
  -7  -4   4   37.90   36.10
  -7  -4   5   12.17   62.39
  -7  -4   5   68.21   36.97
  -7  -3 -13  291.69   55.99
  -7  -3 -13  255.63   55.41
  -7  -3 -12  311.67   51.62
  -7  -3 -12  368.68   54.62
  -7  -3 -12  353.07   54.08
  -7  -3 -11  581.66   55.28
  -7  -3 -11  604.55   53.73
  -7  -3  -9  648.46   30.48
  -7  -3  -9  774.01   49.59
  -7  -3  -9  777.31   51.05
  -7  -3  -8  602.74   32.54
  -7  -3  -8  742.10   46.64
  -7  -3  -8  682.38   47.32
  -7  -3  -7  511.01   43.16
  -7  -3  -7  515.12   42.05
  -7  -3  -6   52.85   34.63
  -7  -3  -6   13.38   33.97
  -7  -3  -5  144.74   33.78
  -7  -3  -5  146.45   33.87
  -7  -3  -4  203.48   32.72
  -7  -3  -4  198.92   31.06
  -7  -3  -4  225.39   34.01
  -7  -3  -3   51.36   29.17
  -7  -3  -3   37.80   28.36
  -7  -3  -3   56.73   32.92
  -7  -3  -2  131.57   35.24
  -7  -3  -2  108.14   24.96
  -7  -3  -2  141.20   32.33
  -7  -3  -2  120.08   32.84
  -7  -3  -1  132.91   34.82
  -7  -3  -1   90.74   34.11
  -7  -3   0  137.93   36.51
  -7  -3   0   99.35   34.77
  -7  -3   1   61.90   47.11
  -7  -3   1  112.22   34.65
  -7  -3   2  163.00   50.97
  -7  -3   2  128.27   38.02
  -7  -3   3  218.09   35.52
  -7  -3   3  181.72   42.54
  -7  -3   3  249.39   55.18
  -7  -3   4  326.35   38.73
  -7  -3   4  482.86   37.99
  -7  -3   4  282.78   46.14
  -7  -3   4  305.04   59.44
  -7  -3   5  189.32   60.33
  -7  -3   5  166.28   35.55
  -7  -3   6   90.48   34.61
  -7  -3   6   61.76   63.48
  -7  -3   6   19.22   41.41
  -7  -2 -13  121.76   51.15
  -7  -2 -13   68.85   54.58
  -7  -2 -13  143.59   52.28
  -7  -2 -12    8.59   46.54
  -7  -2 -12   48.20   52.67
  -7  -2 -12   16.80   47.68
  -7  -2 -11   86.06   44.94
  -7  -2 -11   93.71   50.77
  -7  -2 -11   26.60   46.20
  -7  -2  -9   43.65   21.06
  -7  -2  -9   -6.09   42.59
  -7  -2  -8   43.12   38.14
  -7  -2  -8  112.53   36.10
  -7  -2  -7  312.72   40.39
  -7  -2  -7  346.86   39.00
  -7  -2  -6  939.65   47.53
  -7  -2  -6  879.26   44.66
  -7  -2  -5 1370.35   48.58
  -7  -2  -5 1335.48   51.11
  -7  -2  -5 1347.09   52.98
  -7  -2  -5 1412.88   51.97
  -7  -2  -4  244.83   32.46
  -7  -2  -4  202.47   38.87
  -7  -2  -4  246.82   30.67
  -7  -2  -4  203.45   33.91
  -7  -2  -3  820.60   37.84
  -7  -2  -3  732.67   42.81
  -7  -2  -3  783.67   38.63
  -7  -2  -3  740.48   40.96
  -7  -2  -2  852.29   41.16
  -7  -2  -2  861.51   44.62
  -7  -2  -2  827.88   41.73
  -7  -2  -2  810.26   41.38
  -7  -2  -1 1041.42   48.12
  -7  -2  -1  949.94   43.21
  -7  -2  -1  965.80   44.99
  -7  -2  -1  953.36   46.77
  -7  -2   0  807.08   40.94
  -7  -2   0  763.56   41.88
  -7  -2   0  756.18   46.12
  -7  -2   1  627.40   39.87
  -7  -2   1  604.91   45.72
  -7  -2   1  564.83   39.53
  -7  -2   3  323.83   36.49
  -7  -2   3  395.90   36.44
  -7  -2   3  358.58   52.12
  -7  -2   3  338.18   38.76
  -7  -2   4  426.54   38.91
  -7  -2   4  477.76   55.98
  -7  -2   4  572.46   42.71
  -7  -2   4  455.73   42.50
  -7  -2   5  178.84   36.73
  -7  -2   5  221.70   41.55
  -7  -2   5  192.54   56.68
  -7  -2   5  116.56   35.49
  -7  -2   5  238.61   39.92
  -7  -2   6  176.40   36.84
  -7  -2   6  187.16   44.31
  -7  -2   6  147.18   42.03
  -7  -2   6  194.16   62.62
  -7  -2   6  215.05   40.39
  -7  -2   7  155.25   35.46
  -7  -2   7  160.83   47.76
  -7  -2   7  169.92   46.43
  -7  -2   7  142.12   65.10
  -7  -2   7  177.94   41.63
  -7  -1 -12  371.83   58.43
  -7  -1 -12  280.53   49.53
  -7  -1 -12  245.28   50.24
  -7  -1 -11 1150.61   66.36
  -7  -1 -11 1094.70   59.30
  -7  -1 -11 1038.25   56.85
  -7  -1 -10  909.81   53.67
  -7  -1  -9  963.07   59.04
  -7  -1  -8  601.40   48.56
  -7  -1  -8  516.84   42.54
  -7  -1  -7  966.91   41.43
  -7  -1  -7 1145.90   53.55
  -7  -1  -7 1074.29   48.20
  -7  -1  -6 1075.55   50.11
  -7  -1  -6 1001.24   45.77
  -7  -1  -5 1283.94   48.94
  -7  -1  -5 1410.52   54.24
  -7  -1  -5 1403.71   51.75
  -7  -1  -4  508.77   37.92
  -7  -1  -4  393.52   35.54
  -7  -1  -4  411.72   34.85
  -7  -1  -4  434.02   35.36
  -7  -1  -3  825.13   42.11
  -7  -1  -3  819.01   43.61
  -7  -1  -3  905.16   40.85
  -7  -1  -3  802.63   41.41
  -7  -1  -2 1645.02   54.38
  -7  -1  -2 1676.48   56.23
  -7  -1  -2 1659.64   55.47
  -7  -1  -1  288.38   35.27
  -7  -1  -1  286.04   34.77
  -7  -1  -1  281.56   35.30
  -7  -1   0  134.16   39.55
  -7  -1   0  171.31   36.02
  -7  -1   0  185.02   32.92
  -7  -1   1  306.26   40.66
  -7  -1   1  262.66   33.87
  -7  -1   1  272.90   32.11
  -7  -1   2  715.91   48.16
  -7  -1   3  146.89   45.40
  -7  -1   4   76.86   25.92
  -7  -1   4   39.58   38.06
  -7  -1   4   61.37   47.62
  -7  -1   4   95.55   35.57
  -7  -1   5   51.34   32.48
  -7  -1   5   33.15   51.41
  -7  -1   5   26.10   35.55
  -7  -1   5  -64.11   41.70
  -7  -1   6   71.71   38.53
  -7  -1   6  -22.61   51.10
  -7  -1   6   32.20   57.13
  -7  -1   6   69.33   37.16
  -7  -1   6  -24.21   46.85
  -7  -1   7  129.06   45.18
  -7  -1   7   65.82   40.66
  -7  -1   7  -22.92   49.40
  -7  -1   7  114.45   63.06
  -7  -1   7   61.07   60.96
  -7  -1   7   91.52   37.62
  -7   0 -12  504.29   60.83
  -7   0 -12  483.34   51.87
  -7   0 -12  407.48   50.29
  -7   0 -11  588.47   58.32
  -7   0 -11  493.39   48.91
  -7   0 -11  487.14   49.61
  -7   0 -10  203.64   44.53
  -7   0  -9  398.00   51.49
  -7   0  -9  316.96   40.81
  -7   0  -8  379.40   49.55
  -7   0  -7  385.48   46.46
  -7   0  -7  372.14   38.38
  -7   0  -6  247.75   39.93
  -7   0  -6  218.86   33.51
  -7   0  -5  131.14   35.38
  -7   0  -5  173.37   32.19
  -7   0  -4   97.82   30.53
  -7   0  -3  140.88   29.09
  -7   0  -3  158.14   34.29
  -7   0  -2  394.33   35.67
  -7   0  -2  298.79   38.98
  -7   0  -1   37.55   33.27
  -7   0  -1   96.77   35.73
  -7   0   0   62.01   34.46
  -7   0   0  135.88   35.25
  -7   0   0   60.91   32.26
  -7   0   1   47.80   37.04
  -7   0   1   89.40   29.57
  -7   0   1   40.07   32.85
  -7   0   1   93.81   35.69
  -7   0   2   -9.85   38.99
  -7   0   2   67.86   32.81
  -7   0   3   11.60   43.05
  -7   0   3  -46.05   35.83
  -7   0   3   36.38   20.42
  -7   0   4   43.06   32.43
  -7   0   4   43.62   21.90
  -7   0   4   18.90   24.22
  -7   0   4   -6.21   29.89
  -7   0   4    9.20   45.90
  -7   0   4   17.31   35.92
  -7   0   5  125.04   38.48
  -7   0   5   58.74   42.67
  -7   0   5  114.03   37.20
  -7   0   5  128.16   29.62
  -7   0   5   90.37   32.57
  -7   0   5  137.83   51.90
  -7   0   5  118.76   35.25
  -7   0   6  207.36   39.92
  -7   0   6  210.41   36.33
  -7   0   6  252.41   47.94
  -7   0   6  214.44   36.86
  -7   0   6  186.58   45.47
  -7   0   7   87.74   38.66
  -7   0   7   -4.23   49.60
  -7   0   7   55.18   41.85
  -7   0   7   56.69   55.59
  -7   0   7   46.81   34.17
  -7   0   7   25.08   45.30
  -7   0   8   49.31   46.43
  -7   0   8   -8.37   54.45
  -7   0   8   41.14   43.45
  -7   0   8   74.93   49.54
  -7   0   8   65.80   58.69
  -7   0   8   57.30   30.47
  -7   1 -11   60.01   42.07
  -7   1 -11   52.01   55.29
  -7   1 -11   96.62   43.74
  -7   1 -10  298.33   42.56
  -7   1  -9  357.38   42.05
  -7   1  -8  162.78   44.81
  -7   1  -8  153.72   47.25
  -7   1  -8  152.92   37.05
  -7   1  -7  205.64   41.58
  -7   1  -7  287.50   45.35
  -7   1  -6  250.99   36.11
  -7   1  -6  338.94   43.28
  -7   1  -6  288.47   34.10
  -7   1  -5  476.62   42.84
  -7   1  -4  317.27   36.15
  -7   1  -3   38.86   28.79
  -7   1  -2  201.38   33.38
  -7   1  -2  238.06   38.11
  -7   1  -1  354.45   35.48
  -7   1  -1  357.94   39.41
  -7   1   0  287.80   29.50
  -7   1   0  226.77   34.02
  -7   1   0  320.11   35.92
  -7   1   1  249.69   30.92
  -7   1   1  199.68   33.23
  -7   1   1  245.65   34.80
  -7   1   2  638.56   39.45
  -7   1   2  632.20   43.92
  -7   1   3  276.08   39.26
  -7   1   3  355.94   44.29
  -7   1   3  304.27   43.34
  -7   1   4   99.09   39.43
  -7   1   4  138.73   24.12
  -7   1   4  135.03   24.33
  -7   1   4  210.20   35.98
  -7   1   5  166.28   30.22
  -7   1   5  185.93   32.38
  -7   1   5  183.79   49.66
  -7   1   5  122.02   35.62
  -7   1   6  314.12   44.99
  -7   1   6  233.40   39.04
  -7   1   6  198.63   35.16
  -7   1   6  106.32   33.98
  -7   1   6  265.84   41.60
  -7   1   6  138.38   33.25
  -7   1   7  420.89   47.69
  -7   1   7  445.71   49.46
  -7   1   7   95.26   45.86
  -7   1   7  288.11   42.29
  -7   1   7  208.16   40.98
  -7   1   7  372.74   59.49
  -7   1   7  173.14   32.21
  -7   1   8   46.02   50.47
  -7   1   8  252.12   46.02
  -7   1   8  122.80   45.35
  -7   1   8  101.14   27.10
  -7   1   8  243.98   54.29
  -7   2 -11  247.03   42.41
  -7   2 -11  304.08   45.52
  -7   2 -11  335.67   62.23
  -7   2 -10  566.67   62.24
  -7   2 -10  580.84   60.36
  -7   2  -9  383.66   34.62
  -7   2  -9  371.70   41.72
  -7   2  -9  516.92   54.77
  -7   2  -8  524.78   53.37
  -7   2  -8  480.51   51.07
  -7   2  -8  420.05   40.70
  -7   2  -7  723.94   54.14
  -7   2  -7  674.38   51.84
  -7   2  -6 1000.00   55.59
  -7   2  -6  902.43   50.92
  -7   2  -5  364.93   43.23
  -7   2  -4  504.48   40.90
  -7   2  -3  560.71   39.62
  -7   2  -2  661.45   42.90
  -7   2  -2  903.53   45.16
  -7   2  -1  550.40   39.08
  -7   2  -1  614.40   42.72
  -7   2   0  326.94   31.22
  -7   2   0  199.02   34.61
  -7   2   0  132.79   16.61
  -7   2   0  280.86   38.54
  -7   2   1  156.97   31.34
  -7   2   1  177.65   34.55
  -7   2   1   93.95   32.30
  -7   2   2  436.47   39.15
  -7   2   2  352.17   35.17
  -7   2   3  660.36   46.04
  -7   2   3  565.66   40.64
  -7   2   4   11.87   37.46
  -7   2   4   64.97   22.70
  -7   2   4   90.84   33.61
  -7   2   5  163.43   50.11
  -7   2   5  101.69   28.15
  -7   2   5  170.10   49.52
  -7   2   5  110.86   33.25
  -7   2   5  112.55   40.34
  -7   2   6   32.08   33.25
  -7   2   6    2.95   32.25
  -7   2   7   10.59   28.92
  -7   2   7   58.22   36.69
  -7   2   8  102.23   58.92
  -7   2   8   31.94   41.56
  -7   2   8   23.61   46.11
  -7   2   9   21.67   39.70
  -7   2   9   53.13   45.20
  -7   2   9   14.53   45.45
  -7   2   9    8.29   49.70
  -7   3 -10  226.07   40.54
  -7   3 -10  332.00   59.38
  -7   3 -10  257.62   32.47
  -7   3 -10  340.38   63.72
  -7   3  -9  126.91   35.46
  -7   3  -9  141.20   38.00
  -7   3  -9  226.15   55.32
  -7   3  -8  262.73   39.87
  -7   3  -8  340.53   50.68
  -7   3  -8  314.08   53.77
  -7   3  -7  294.09   37.62
  -7   3  -7  317.61   51.34
  -7   3  -7  319.81   47.54
  -7   3  -6  345.95   47.81
  -7   3  -6  345.70   45.26
  -7   3  -5  155.37   42.39
  -7   3  -4   87.61   36.70
  -7   3  -3  153.39   35.52
  -7   3  -2  305.06   36.91
  -7   3  -1  193.20   36.63
  -7   3  -1  106.65   35.74
  -7   3   0  130.25   30.16
  -7   3   0   58.52   19.61
  -7   3   0   88.24   20.95
  -7   3   0  137.97   37.50
  -7   3   0  150.05   35.22
  -7   3   1   17.45   31.37
  -7   3   1  -21.61   18.39
  -7   3   1   16.41   16.23
  -7   3   1   21.78   35.43
  -7   3   1  -59.51   38.04
  -7   3   2  -20.75   33.65
  -7   3   2   45.86   34.05
  -7   3   2   40.39   36.88
  -7   3   3   20.70   41.04
  -7   3   3    1.06   34.03
  -7   3   4  -53.55   36.63
  -7   3   4   15.27   22.43
  -7   3   4  -13.39   43.77
  -7   3   4   -4.97   34.21
  -7   3   5   48.90   37.07
  -7   3   5   26.04   26.49
  -7   3   5    2.08   48.60
  -7   3   5    4.56   33.30
  -7   3   6   54.54   40.34
  -7   3   6   68.65   55.06
  -7   3   6   52.45   31.76
  -7   3   6    4.98   30.50
  -7   3   7  149.00   57.47
  -7   3   7   57.81   29.00
  -7   3   7   69.08   37.30
  -7   3   8   71.58   40.54
  -7   3   8   85.87   59.39
  -7   3   8   14.14   61.14
  -7   3   9   41.67   44.39
  -7   3   9   12.42   42.80
  -7   4  -9  187.90   39.17
  -7   4  -9  136.76   54.20
  -7   4  -9  109.40   37.07
  -7   4  -8   46.34   49.33
  -7   4  -8  113.20   40.36
  -7   4  -8  100.44   54.80
  -7   4  -8   55.42   37.12
  -7   4  -7   18.08   45.39
  -7   4  -7   53.52   52.27
  -7   4  -6   67.91   42.69
  -7   4  -6   76.44   47.60
  -7   4  -5   94.12   44.68
  -7   4  -4  155.44   40.31
  -7   4  -3  222.25   39.70
  -7   4  -2  141.07   37.32
  -7   4  -1   48.14   27.01
  -7   4  -1   55.68   37.55
  -7   4   0  262.45   33.59
  -7   4   0  215.44   25.62
  -7   4   0  229.84   27.70
  -7   4   0  275.12   38.93
  -7   4   1  154.15   34.29
  -7   4   1  117.44   24.10
  -7   4   1  161.83   21.74
  -7   4   1  176.30   37.87
  -7   4   1  222.63   42.13
  -7   4   2  188.16   36.26
  -7   4   2  221.66   37.40
  -7   4   2  226.73   46.43
  -7   4   3  372.96   40.03
  -7   4   3  586.29   50.40
  -7   4   4  338.63   39.23
  -7   4   4  307.67   39.75
  -7   4   4  490.30   51.74
  -7   4   5  296.05   40.65
  -7   4   5  338.12   51.35
  -7   4   5  225.41   36.78
  -7   4   6  106.99   41.71
  -7   4   6   81.88   31.64
  -7   4   6  109.88   33.16
  -7   4   7   95.05   46.13
  -7   4   7   64.97   56.93
  -7   4   7   42.22   29.29
  -7   4   7   58.88   35.59
  -7   4   8  209.96   60.11
  -7   4   8  155.91   40.12
  -7   4   9  207.86   45.34
  -7   4   9  245.86   48.98
  -7   5  -8  105.56   42.92
  -7   5  -8   85.43   53.08
  -7   5  -8  106.29   37.42
  -7   5  -7  201.54   52.05
  -7   5  -7  267.56   57.97
  -7   5  -7  158.17   44.36
  -7   5  -6  369.03   56.21
  -7   5  -5  385.29   52.22
  -7   5  -4  352.26   47.64
  -7   5  -3  296.89   43.72
  -7   5  -2  637.82   47.03
  -7   5  -1  670.91   48.45
  -7   5  -1  612.96   37.51
  -7   5   0  691.84   48.26
  -7   5   0  866.89   43.16
  -7   5   0  648.62   35.49
  -7   5   1  213.80   36.89
  -7   5   1  198.51   26.57
  -7   5   1  127.05   30.25
  -7   5   1  209.50   40.26
  -7   5   2  131.81   27.78
  -7   5   2  184.36   49.51
  -7   5   2   77.95   40.25
  -7   5   2   45.74   36.99
  -7   5   3  421.25   54.76
  -7   5   3  327.11   40.21
  -7   5   4  444.16   42.43
  -7   5   4  669.20   57.63
  -7   5   4  466.96   43.23
  -7   5   5  239.28   52.68
  -7   5   5  120.99   38.22
  -7   5   5  176.83   40.55
  -7   5   6  160.45   56.35
  -7   5   6   50.05   36.07
  -7   5   6   81.67   42.13
  -7   5   7    8.88   36.79
  -7   5   7   42.91   31.82
  -7   5   8   11.41   39.51
  -7   5   8   60.16   47.73
  -7   5   9   34.28   43.13
  -7   6  -7  191.11   59.82
  -7   6  -7  144.46   47.72
  -7   6  -6  373.02   59.34
  -7   6  -6  372.67   49.34
  -7   6  -5  153.90   54.24
  -7   6  -4   78.89   49.40
  -7   6  -3  136.72   46.10
  -7   6  -2  145.74   45.14
  -7   6  -1  134.99   34.63
  -7   6  -1   82.67   43.80
  -7   6   0  138.90   36.66
  -7   6   0   62.60   30.79
  -7   6   0   62.38   43.54
  -7   6   1   21.86   39.24
  -7   6   1   43.93   29.41
  -7   6   1   20.97   33.16
  -7   6   1   54.90   42.58
  -7   6   2  -23.42   39.71
  -7   6   2   42.94   42.62
  -7   6   2   45.11   32.18
  -7   6   3  -71.87   41.41
  -7   6   3   68.76   52.76
  -7   6   4   97.46   40.11
  -7   6   4  151.42   43.94
  -7   6   4   83.17   55.07
  -7   6   5   30.96   42.18
  -7   6   5  -54.74   58.84
  -7   6   6  -12.06   42.77
  -7   6   6   18.31   39.23
  -7   6   8   15.93   42.04
  -7   6   9  123.72   64.32
  -7   6   9   55.53   45.06
  -7   7  -6   47.05   57.04
  -7   7  -6   23.08   48.61
  -7   7  -5   45.31   55.68
  -7   7  -4   75.96   54.61
  -7   7  -3  -16.34   49.01
  -7   7  -2  -39.45   41.22
  -7   7  -2   20.14   46.82
  -7   7  -1  175.96   39.96
  -7   7  -1  118.81   48.41
  -7   7   0  322.20   41.41
  -7   7   0  215.52   36.88
  -7   7   0  251.81   51.22
  -7   7   1  272.77   43.59
  -7   7   1  235.64   35.76
  -7   7   1  153.57   41.84
  -7   7   1  199.82   49.85
  -7   7   2   96.43   42.58
  -7   7   2   57.57   36.80
  -7   7   3   33.89   44.71
  -7   7   4  204.68   48.84
  -7   7   4  154.06   45.47
  -7   7   5  494.31   50.74
  -7   7   5  584.89   49.68
  -7   7   6  151.44   43.05
  -7   7   8  276.78   67.25
  -7   7   9  175.81   48.62
  -7   7   9  457.65   68.61
  -7   8  -5  206.20   44.69
  -7   8  -5  343.29   56.76
  -7   8  -5  411.74   64.21
  -7   8  -4  244.93   59.47
  -7   8  -3   96.53   55.16
  -7   8  -2  105.32   54.06
  -7   8  -2  139.16   46.45
  -7   8  -1  357.57   57.82
  -7   8  -1  425.83   47.90
  -7   8   0  477.61   59.19
  -7   8   0  422.96   45.01
  -7   8   0  409.10   51.33
  -7   8   1  216.23   46.51
  -7   8   1  286.28   43.33
  -7   8   1  290.62   54.78
  -7   8   2  171.44   43.93
  -7   8   2  201.48   47.83
  -7   8   3  102.74   47.62
  -7   8   3  113.27   41.65
  -7   8   4  132.98   51.97
  -7   8   4   49.62   48.21
  -7   8   5  234.95   49.56
  -7   8   8   60.72   68.90
  -7   9  -3   77.04   58.27
  -7   9  -3  114.24   46.13
  -7   9  -2  145.85   56.22
  -7   9  -2   61.13   47.44
  -7   9  -1   41.21   48.26
  -7   9  -1   81.36   47.91
  -7   9  -1  166.02   56.13
  -7   9   0    9.47   50.21
  -7   9   0   52.20   44.89
  -7   9   0   82.90   56.18
  -7   9   1  110.47   50.65
  -7   9   1  195.35   44.98
  -7   9   1  184.80   56.27
  -7   9   1  261.08   45.55
  -7   9   2  113.11   42.92
  -7   9   2   56.77   46.48
  -7   9   3   74.10   48.30
  -7   9   7  335.76   66.82
  -7   9   8  212.53   69.08
  -7  10  -1   50.09   55.12
  -7  10   0   49.72   58.12
  -7  10   1  272.28   46.24
  -7  10   1  191.30   57.43
  -7  10   2  143.07   47.23
  -7  10   2   29.71   52.34
  -7  10   3   87.55   53.26
  -7  10   4   41.75   51.06
  -7  11   2  240.05   61.79
  -7  11   3   57.52   58.81
  -7  11   4  144.92   57.81
  -6 -12  -9  198.24   61.56
  -6 -12  -8  214.40   62.27
  -6 -12  -7  152.27   60.70
  -6 -12  -6  141.44   41.18
  -6 -12  -5  183.66   49.12
  -6 -12  -5  238.32   47.22
  -6 -12  -5  195.36   59.71
  -6 -11 -11   61.79   61.11
  -6 -11 -10   86.32   58.47
  -6 -11  -9  114.08   57.16
  -6 -11  -8   56.20   54.11
  -6 -11  -7   64.34   54.10
  -6 -11  -6   35.34   44.01
  -6 -11  -6   25.47   38.24
  -6 -11  -6   64.14   52.86
  -6 -11  -5   44.52   43.08
  -6 -11  -5   30.07   42.44
  -6 -11  -4   48.06   42.36
  -6 -11  -4   84.43   48.30
  -6 -11  -4   32.83   53.91
  -6 -11  -3   54.18   41.78
  -6 -11  -3   34.92   53.56
  -6 -11  -3   93.07   54.78
  -6 -11  -2   26.54   60.81
  -6 -11  -2   44.65   54.05
  -6 -10 -12   21.96   48.39
  -6 -10 -12  -12.50   58.57
  -6 -10 -11   18.87   51.11
  -6 -10 -11   14.36   55.99
  -6 -10 -10   39.98   54.44
  -6 -10  -9  142.81   55.52
  -6 -10  -8  126.84   46.04
  -6 -10  -8  161.02   54.46
  -6 -10  -7  151.38   53.25
  -6 -10  -6  217.59   43.84
  -6 -10  -6  282.20   52.25
  -6 -10  -6  248.92   54.05
  -6 -10  -5  351.57   44.82
  -6 -10  -5  408.27   56.14
  -6 -10  -5  407.85   43.64
  -6 -10  -4  343.53   43.30
  -6 -10  -4  412.35   48.54
  -6 -10  -3  340.80   43.15
  -6 -10  -3  361.40   57.18
  -6 -10  -3  257.26   53.11
  -6 -10  -2  214.50   40.85
  -6 -10  -2  226.30   57.81
  -6 -10  -2  205.92   51.81
  -6 -10  -1  256.25   38.93
  -6 -10  -1  161.34   60.76
  -6 -10  -1  228.64   51.71
  -6  -9 -13  250.00   46.47
  -6  -9 -13  214.99   61.39
  -6  -9 -12  419.44   50.68
  -6  -9 -12  353.36   59.83
  -6  -9 -11  308.21   48.57
  -6  -9 -11  236.93   55.13
  -6  -9 -10  173.06   55.25
  -6  -9  -9  355.22   54.16
  -6  -9  -9  323.83   48.98
  -6  -9  -8  728.23   59.35
  -6  -9  -8  667.44   52.38
  -6  -9  -7  630.69   29.05
  -6  -9  -7  782.37   51.05
  -6  -9  -7  794.62   58.80
  -6  -9  -6  698.48   55.05
  -6  -9  -6  613.45   55.53
  -6  -9  -5  374.99   50.35
  -6  -9  -5  332.68   51.11
  -6  -9  -5  323.66   40.17
  -6  -9  -4  663.48   55.05
  -6  -9  -4  527.89   52.71
  -6  -9  -4  590.75   45.14
  -6  -9  -4  566.79   46.92
  -6  -9  -3  707.97   57.53
  -6  -9  -3  819.02   48.05
  -6  -9  -3  772.48   53.39
  -6  -9  -2  587.79   43.31
  -6  -9  -2  551.70   54.23
  -6  -9  -2  552.98   56.61
  -6  -9  -1  165.86   35.94
  -6  -9  -1  119.59   57.97
  -6  -9  -1  152.76   48.02
  -6  -9   0  130.18   34.27
  -6  -9   0  154.53   49.47
  -6  -9   1  132.50   47.69
  -6  -8 -13  269.88   45.46
  -6  -8 -12  546.04   48.35
  -6  -8 -12  513.30   60.18
  -6  -8 -11  223.76   45.25
  -6  -8 -11  272.56   53.15
  -6  -8 -10   93.51   45.37
  -6  -8 -10  105.35   50.79
  -6  -8  -9  165.42   44.24
  -6  -8  -9  128.50   50.06
  -6  -8  -8  284.91   43.68
  -6  -8  -8  243.83   50.34
  -6  -8  -7  318.80   49.87
  -6  -8  -7  363.51   44.36
  -6  -8  -6  239.95   39.81
  -6  -8  -6  247.33   43.27
  -6  -8  -6  219.73   46.27
  -6  -8  -5   41.91   40.62
  -6  -8  -5   37.26   42.02
  -6  -8  -4   30.25   41.60
  -6  -8  -4    1.21   38.21
  -6  -8  -4   24.18   41.93
  -6  -8  -3   47.98   41.87
  -6  -8  -3   82.51   35.64
  -6  -8  -3   53.67   41.49
  -6  -8  -3   65.57   43.14
  -6  -8  -2   70.22   34.71
  -6  -8  -2   32.25   44.41
  -6  -8  -1  101.88   47.28
  -6  -8  -1  102.59   33.79
  -6  -8  -1  103.93   44.68
  -6  -8   0   87.51   33.01
  -6  -8   0   94.07   45.48
  -6  -8   1   75.65   30.43
  -6  -8   1  100.99   45.22
  -6  -8   2  120.24   29.08
  -6  -8   2  111.76   43.95
  -6  -7 -14    5.29   43.39
  -6  -7 -14  -18.23   58.40
  -6  -7 -13   -4.19   43.38
  -6  -7 -12   36.96   41.47
  -6  -7 -12   17.20   51.54
  -6  -7 -11  100.51   46.21
  -6  -7 -11   67.13   39.91
  -6  -7 -11   26.48   49.16
  -6  -7 -10   50.17   42.43
  -6  -7 -10    4.98   46.76
  -6  -7  -9  108.52   40.82
  -6  -7  -9   83.28   39.22
  -6  -7  -9   98.35   46.44
  -6  -7  -8  124.52   44.75
  -6  -7  -8  156.15   39.37
  -6  -7  -8   96.65   37.04
  -6  -7  -7  405.80   46.42
  -6  -7  -7  401.20   42.90
  -6  -7  -6  377.73   40.98
  -6  -7  -6  315.68   43.73
  -6  -7  -6  259.63   26.37
  -6  -7  -6  315.03   38.49
  -6  -7  -5  159.81   37.58
  -6  -7  -5   85.34   40.28
  -6  -7  -4  422.41   42.66
  -6  -7  -4  441.95   44.04
  -6  -7  -3  911.03   51.66
  -6  -7  -3 1016.66   51.69
  -6  -7  -2 1265.57   58.44
  -6  -7  -2 1319.41   56.64
  -6  -7  -1  626.48   50.00
  -6  -7   0  694.21   51.90
  -6  -7   0  583.70   46.52
  -6  -7   1  778.99   56.85
  -6  -7   1  713.59   47.80
  -6  -7   1  740.58   64.14
  -6  -7   2 1156.74   54.01
  -6  -7   2 1139.18   73.65
  -6  -7   3  769.99   49.14
  -6  -7   3  786.34   72.30
  -6  -7   4  351.90   71.30
  -6  -7   4  279.55   37.45
  -6  -6 -14   57.89   48.25
  -6  -6 -14  112.55   57.94
  -6  -6 -13  246.82   45.53
  -6  -6 -13  270.87   56.83
  -6  -6 -12  442.87   46.39
  -6  -6 -11  728.71   58.23
  -6  -6 -11  652.80   48.70
  -6  -6 -11  739.20   53.91
  -6  -6 -10  362.63   48.98
  -6  -6 -10  402.26   45.13
  -6  -6  -9  799.39   47.34
  -6  -6  -9  794.27   53.38
  -6  -6  -9  760.86   48.39
  -6  -6  -8 1077.85   52.78
  -6  -6  -8 1154.44   55.62
  -6  -6  -8 1073.63   46.80
  -6  -6  -8 1045.01   50.69
  -6  -6  -7 1346.94   59.15
  -6  -6  -7 1376.65   56.70
  -6  -6  -7 1374.96   56.92
  -6  -6  -6 1476.50   58.87
  -6  -6  -6 1316.91   40.69
  -6  -6  -6 1511.66   52.50
  -6  -6  -5  655.99   42.70
  -6  -6  -5  665.12   46.47
  -6  -6  -4  524.66   40.67
  -6  -6  -4  527.75   43.58
  -6  -6  -3 1307.23   53.93
  -6  -6  -3 1275.96   54.64
  -6  -6  -2 1545.32   59.57
  -6  -6  -2 1584.04   59.57
  -6  -6  -1  742.20   48.76
  -6  -6  -1  976.14   51.75
  -6  -6   0  592.38   48.55
  -6  -6   0  659.48   55.48
  -6  -6   1  487.67   48.12
  -6  -6   1  493.36   42.59
  -6  -6   1  519.71   55.74
  -6  -6   2  289.25   48.09
  -6  -6   2  310.47   59.91
  -6  -6   2  261.88   39.27
  -6  -6   3  198.91   62.54
  -6  -6   3  199.23   37.79
  -6  -6   4   94.15   66.30
  -6  -6   4   68.14   35.93
  -6  -6   5   85.05   68.65
  -6  -6   5   58.64   30.64
  -6  -5 -14  259.67   51.27
  -6  -5 -14  230.20   55.91
  -6  -5 -13  439.69   52.73
  -6  -5 -13  395.56   55.83
  -6  -5 -12  850.45   58.51
  -6  -5 -12  665.40   50.83
  -6  -5 -12  803.48   60.85
  -6  -5 -11 1064.70   54.72
  -6  -5 -11 1261.97   61.50
  -6  -5 -10  356.73   47.18
  -6  -5 -10  499.82   44.88
  -6  -5  -9  238.13   38.50
  -6  -5  -9  208.87   38.87
  -6  -5  -9  197.58   42.81
  -6  -5  -8  627.93   35.22
  -6  -5  -8  633.35   41.35
  -6  -5  -8  707.00   46.88
  -6  -5  -7  517.08   39.02
  -6  -5  -7  457.30   43.00
  -6  -5  -6  268.86   33.30
  -6  -5  -6  309.74   37.11
  -6  -5  -6  257.85   38.93
  -6  -5  -5  204.66   37.67
  -6  -5  -5  205.18   32.80
  -6  -5  -4   47.81   33.16
  -6  -5  -4   58.74   31.78
  -6  -5  -3   53.96   32.87
  -6  -5  -3   39.85   31.97
  -6  -5  -2    0.57   32.57
  -6  -5  -2  -11.00   35.77
  -6  -5  -2   23.92   33.26
  -6  -5  -1  104.11   33.30
  -6  -5  -1   79.26   38.64
  -6  -5  -1   64.38   35.56
  -6  -5   0    9.17   42.44
  -6  -5   0   32.74   35.82
  -6  -5   1   43.45   33.02
  -6  -5   1   35.28   47.24
  -6  -5   1   28.56   37.11
  -6  -5   2   62.29   34.63
  -6  -5   2   58.20   40.81
  -6  -5   2   41.07   50.90
  -6  -5   3  422.15   48.02
  -6  -5   3  374.84   39.80
  -6  -5   3  444.97   60.18
  -6  -5   4  357.47   64.21
  -6  -5   4  392.84   38.57
  -6  -5   5  317.89   66.18
  -6  -5   5  225.49   35.03
  -6  -4 -14   60.19   50.57
  -6  -4 -14   96.77   52.21
  -6  -4 -13   69.33   47.68
  -6  -4 -13   52.62   51.65
  -6  -4 -12  -27.18   47.65
  -6  -4 -12   42.96   48.78
  -6  -4 -11   68.27   43.28
  -6  -4 -11  -18.66   43.30
  -6  -4 -10    4.87   38.98
  -6  -4 -10   11.06   41.04
  -6  -4  -9   34.14   34.76
  -6  -4  -9   -8.75   37.60
  -6  -4  -9   39.93   38.20
  -6  -4  -8   -6.08   24.00
  -6  -4  -8    0.59   34.77
  -6  -4  -8    7.02   36.48
  -6  -4  -7  295.47   35.17
  -6  -4  -7  335.96   40.17
  -6  -4  -6 1344.79   45.60
  -6  -4  -6 1425.77   51.45
  -6  -4  -6 1418.66   53.62
  -6  -4  -5  756.68   38.10
  -6  -4  -5  731.74   39.65
  -6  -4  -5  667.43   41.61
  -6  -4  -4  220.18   27.59
  -6  -4  -4  255.16   34.03
  -6  -4  -4  247.69   30.08
  -6  -4  -4  254.44   31.92
  -6  -4  -3  606.41   36.42
  -6  -4  -3  582.71   38.25
  -6  -4  -2 1171.73   46.40
  -6  -4  -2 1203.15   46.69
  -6  -4  -1 1376.87   51.84
  -6  -4  -1 1396.43   50.10
  -6  -4  -1 1438.70   55.14
  -6  -4   0 1388.57   54.04
  -6  -4   0 1399.57   49.70
  -6  -4   0 1496.53   60.97
  -6  -4   1  617.22   43.98
  -6  -4   1  658.28   49.90
  -6  -4   2  425.32   43.91
  -6  -4   2  431.01   35.66
  -6  -4   2  401.22   50.45
  -6  -4   3  927.59   53.47
  -6  -4   3  921.72   43.92
  -6  -4   3  996.53   63.42
  -6  -4   4  650.26   50.87
  -6  -4   4  552.71   39.70
  -6  -4   4  700.24   62.77
  -6  -4   5  473.65   38.33
  -6  -4   5  632.50   65.25
  -6  -4   6  308.93   65.60
  -6  -4   6  310.60   32.81
  -6  -3 -13  145.56   50.67
  -6  -3 -13  120.46   49.65
  -6  -3 -13  147.52   50.45
  -6  -3 -12  510.07   53.81
  -6  -3 -12  588.11   54.41
  -6  -3 -12  485.85   54.31
  -6  -3 -11  696.04   53.61
  -6  -3 -11  691.00   52.02
  -6  -3 -10  928.45   51.48
  -6  -3  -9  309.04   40.67
  -6  -3  -9  260.73   41.37
  -6  -3  -8  481.20   26.35
  -6  -3  -8  565.77   41.89
  -6  -3  -8  548.44   41.46
  -6  -3  -7  955.39   44.76
  -6  -3  -7  935.23   46.99
  -6  -3  -6 2219.91   58.21
  -6  -3  -6 2239.74   66.93
  -6  -3  -6 2247.92   66.13
  -6  -3  -5 2774.49   72.73
  -6  -3  -5 2564.33   71.55
  -6  -3  -5 2448.36   64.60
  -6  -3  -4 1690.96   54.21
  -6  -3  -4 1635.53   47.59
  -6  -3  -3  413.34   33.76
  -6  -3  -3  341.80   28.43
  -6  -3  -2  677.66   36.58
  -6  -3  -2  671.97   36.20
  -6  -3  -1 1218.94   47.50
  -6  -3   0  566.43   37.49
  -6  -3   0  614.29   45.30
  -6  -3   1  435.36   34.32
  -6  -3   1  543.39   47.01
  -6  -3   2  159.82   35.41
  -6  -3   2  253.65   46.83
  -6  -3   3  181.63   33.60
  -6  -3   3  314.51   30.60
  -6  -3   3  203.43   38.91
  -6  -3   3  186.96   47.48
  -6  -3   4   80.27   32.73
  -6  -3   4  153.83   31.80
  -6  -3   4  108.19   40.61
  -6  -3   4  146.49   49.54
  -6  -3   5   63.55   31.05
  -6  -3   5   54.79   34.11
  -6  -3   5  -33.45   37.59
  -6  -3   5   74.77   53.40
  -6  -3   6   17.76   31.03
  -6  -3   6   70.08   36.79
  -6  -3   6   55.34   44.89
  -6  -3   6  -23.12   41.86
  -6  -3   6   72.20   57.57
  -6  -3   7   27.33   29.22
  -6  -3   7  -38.45   39.68
  -6  -3   7    0.95   46.58
  -6  -3   7   79.65   61.62
  -6  -3   7   69.45   37.96
  -6  -2 -13  284.59   52.34
  -6  -2 -13  266.27   51.43
  -6  -2 -13  248.97   49.01
  -6  -2 -12 1025.03   59.47
  -6  -2 -12  971.48   60.64
  -6  -2 -12  914.09   57.94
  -6  -2 -11  514.22   51.51
  -6  -2 -11  535.62   48.35
  -6  -2 -11  502.32   47.52
  -6  -2 -10  418.02   44.28
  -6  -2  -8  129.06   19.93
  -6  -2  -8  223.91   38.11
  -6  -2  -8  208.33   35.76
  -6  -2  -7  416.51   38.90
  -6  -2  -7  436.05   37.31
  -6  -2  -6  156.81   32.99
  -6  -2  -6  184.44   31.22
  -6  -2  -5  125.35   30.91
  -6  -2  -5  108.87   30.19
  -6  -2  -4  215.37   32.40
  -6  -2  -4  272.69   29.50
  -6  -2  -4  295.89   32.44
  -6  -2  -3  610.25   37.10
  -6  -2  -3  579.63   31.36
  -6  -2  -3  635.45   35.67
  -6  -2  -2  218.21   32.32
  -6  -2  -2  120.56   27.23
  -6  -2  -2  173.46   29.37
  -6  -2  -1  145.76   28.17
  -6  -2  -1  154.70   28.65
  -6  -2  -1  138.97   33.14
  -6  -2   0  724.37   36.45
  -6  -2   0  642.35   41.34
  -6  -2   0  833.34   38.75
  -6  -2   1  253.44   29.96
  -6  -2   1  191.65   42.02
  -6  -2   2  181.04   43.16
  -6  -2   3  299.68   46.01
  -6  -2   3  313.22   32.14
  -6  -2   4  589.05   36.10
  -6  -2   4  511.91   38.69
  -6  -2   4  555.70   51.97
  -6  -2   4  452.75   36.03
  -6  -2   5  230.96   33.45
  -6  -2   5  307.93   53.73
  -6  -2   5  145.58   38.90
  -6  -2   5  246.95   38.93
  -6  -2   6  111.44   41.94
  -6  -2   6  163.28   32.56
  -6  -2   6   10.05   41.12
  -6  -2   6  182.72   44.36
  -6  -2   6  123.37   55.01
  -6  -2   7  163.51   62.82
  -6  -2   7  147.07   43.57
  -6  -2   7  191.47   47.45
  -6  -2   7  139.52   31.54
  -6  -2   7  -24.60   44.89
  -6  -2   7  171.16   47.21
  -6  -2   7  130.23   39.05
  -6  -2   8  206.74   51.14
  -6  -2   8  243.12   49.11
  -6  -2   8  155.23   29.23
  -6  -2   8  239.67   68.05
  -6  -2   8  183.17   37.87
  -6  -2   8  182.00   37.12
  -6  -1 -13   87.53   47.14
  -6  -1 -13  106.63   50.66
  -6  -1 -13   37.23   42.36
  -6  -1 -12   35.25   43.23
  -6  -1 -12   52.25   48.91
  -6  -1 -12   56.65   44.74
  -6  -1 -11   47.29   42.40
  -6  -1 -11   17.78   48.37
  -6  -1 -11   49.83   42.21
  -6  -1 -10  170.04   40.38
  -6  -1 -10  183.69   41.77
  -6  -1  -8  167.98   41.73
  -6  -1  -8  158.46   34.59
  -6  -1  -7  202.35   35.83
  -6  -1  -7  183.27   32.01
  -6  -1  -6  686.13   40.41
  -6  -1  -6  656.70   37.82
  -6  -1  -5 1081.34   40.07
  -6  -1  -5 1172.28   46.73
  -6  -1  -5 1149.40   43.74
  -6  -1  -4 1377.04   45.59
  -6  -1  -4 1510.45   47.84
  -6  -1  -4 1402.75   48.61
  -6  -1  -3  177.94   30.47
  -6  -1  -3   88.13   28.85
  -6  -1  -3  142.63   26.94
  -6  -1  -2  496.70   31.85
  -6  -1  -2  542.52   32.17
  -6  -1  -2  557.60   34.29
  -6  -1  -1 1661.26   54.63
  -6  -1  -1 1702.17   53.36
  -6  -1  -1 1760.87   54.25
  -6  -1   0 1890.36   57.12
  -6  -1   0 1774.68   55.35
  -6  -1   1 1817.21   56.89
  -6  -1   1 1727.60   54.34
  -6  -1   1 1607.79   48.22
  -6  -1   2  954.47   46.74
  -6  -1   2  832.29   38.84
  -6  -1   2  850.18   38.83
  -6  -1   3  445.15   44.17
  -6  -1   3  464.05   42.86
  -6  -1   3  374.83   26.14
  -6  -1   4  644.75   35.86
  -6  -1   4  661.32   50.98
  -6  -1   4  670.37   33.39
  -6  -1   4  754.40   51.39
  -6  -1   4  629.91   37.31
  -6  -1   5  571.78   54.02
  -6  -1   5  494.30   41.60
  -6  -1   5  548.14   38.16
  -6  -1   5  585.53   40.71
  -6  -1   5  540.26   39.07
  -6  -1   6  285.12   41.67
  -6  -1   6  295.89   40.07
  -6  -1   6  368.75   43.25
  -6  -1   6  283.92   54.28
  -6  -1   6  239.91   34.88
  -6  -1   7  325.39   47.13
  -6  -1   7  303.50   61.45
  -6  -1   7  288.53   43.42
  -6  -1   7  281.29   43.90
  -6  -1   7  329.88   45.98
  -6  -1   7  280.19   36.94
  -6  -1   8  176.03   65.00
  -6  -1   8  284.10   52.40
  -6  -1   8  209.90   47.01
  -6  -1   8  101.08   46.04
  -6  -1   8  235.42   47.00
  -6  -1   8  193.78   33.99
  -6  -1   8  142.34   31.99
  -6   0 -12  119.82   45.73
  -6   0 -12  132.03   53.17
  -6   0 -12  145.39   41.43
  -6   0 -11  644.38   58.43
  -6   0 -11  658.51   49.88
  -6   0 -11  600.67   46.28
  -6   0 -10 1354.15   65.64
  -6   0 -10 1262.33   55.22
  -6   0 -10 1279.25   57.38
  -6   0  -9  473.65   16.10
  -6   0  -9 1224.33   46.87
  -6   0  -8  708.20   48.96
  -6   0  -7  666.97   47.20
  -6   0  -7  646.30   37.89
  -6   0  -6 1134.35   49.80
  -6   0  -6 1039.65   44.85
  -6   0  -5 1905.12   62.00
  -6   0  -5 1943.19   57.38
  -6   0  -3 1197.09   46.37
  -6   0  -2  259.76   34.21
  -6   0  -1  705.15   37.35
  -6   0  -1  715.33   36.81
  -6   0   0  865.59   38.53
  -6   0   0  858.26   35.26
  -6   0   1  679.31   33.79
  -6   0   1  578.07   34.97
  -6   0   1  645.53   38.54
  -6   0   2 1028.09   40.48
  -6   0   2  959.34   44.49
  -6   0   2  932.22   39.57
  -6   0   3  328.27   33.87
  -6   0   3  476.82   41.68
  -6   0   3  285.98   23.29
  -6   0   3  392.05   28.62
  -6   0   3  335.69   26.97
  -6   0   3  300.12   21.74
  -6   0   4   74.87   33.72
  -6   0   4  101.02   42.12
  -6   0   4   67.85   29.24
  -6   0   4   85.45   24.64
  -6   0   4   93.71   26.72
  -6   0   5   63.19   44.82
  -6   0   5   41.80   37.74
  -6   0   5   75.36   31.22
  -6   0   5   51.93   30.22
  -6   0   5  101.80   44.73
  -6   0   5   56.67   30.66
  -6   0   6  128.86   38.39
  -6   0   6  101.22   36.08
  -6   0   6   76.60   35.11
  -6   0   6   47.35   45.61
  -6   0   6   56.04   50.61
  -6   0   6   96.43   30.80
  -6   0   7  183.79   40.65
  -6   0   7  113.74   42.14
  -6   0   7   84.79   40.31
  -6   0   7   69.52   55.90
  -6   0   7   69.10   56.33
  -6   0   7   88.71   30.57
  -6   0   8  184.83   44.12
  -6   0   8  139.00   46.11
  -6   0   8   99.57   44.13
  -6   0   8   59.28   61.67
  -6   0   8   83.10   62.32
  -6   0   8   64.45   24.21
  -6   0   8   88.08   27.73
  -6   0   9   27.40   66.11
  -6   0   9   43.49   67.42
  -6   0   9  124.42   50.29
  -6   0   9    0.46   45.73
  -6   0   9   16.76   63.65
  -6   0   9   11.47   47.64
  -6   0   9   25.13   11.76
  -6   0   9   34.97   44.84
  -6   1 -12  151.81   37.65
  -6   1 -12  340.82   58.91
  -6   1 -12  263.75   44.52
  -6   1 -11  626.72   60.01
  -6   1 -11  559.60   46.65
  -6   1 -11  450.89   42.97
  -6   1 -10  473.92   53.13
  -6   1 -10  410.49   43.25
  -6   1 -10  388.30   42.57
  -6   1  -9  223.01   23.16
  -6   1  -9  352.01   48.62
  -6   1  -9  301.78   37.62
  -6   1  -8  529.21   48.27
  -6   1  -8  553.59   49.08
  -6   1  -8  422.70   38.93
  -6   1  -7  901.78   49.02
  -6   1  -7  989.54   53.09
  -6   1  -6  289.89   35.95
  -6   1  -6  338.29   40.18
  -6   1  -6  290.08   31.09
  -6   1  -5  129.13   35.66
  -6   1  -5   98.22   30.13
  -6   1  -4  112.78   27.91
  -6   1  -3  186.72   25.14
  -6   1  -2  236.30   21.33
  -6   1  -2  429.32   36.56
  -6   1  -1   22.61   27.45
  -6   1   0   75.11   25.04
  -6   1   0   -9.56   29.01
  -6   1   1   53.14   27.23
  -6   1   1   25.84   27.63
  -6   1   2   84.52   28.75
  -6   1   2   30.09   12.21
  -6   1   2   52.11   30.38
  -6   1   2   56.32   30.04
  -6   1   3  -52.14   29.65
  -6   1   3   20.40   18.14
  -6   1   4  105.29   32.04
  -6   1   4   86.11   38.62
  -6   1   4   25.00   28.48
  -6   1   4   85.29   26.41
  -6   1   4   89.92   24.68
  -6   1   5  221.13   35.99
  -6   1   5  211.63   44.12
  -6   1   5  180.03   30.75
  -6   1   5  190.33   35.26
  -6   1   5  146.89   29.73
  -6   1   6   41.30   39.99
  -6   1   6   53.65   33.21
  -6   1   6   22.81   40.67
  -6   1   6   29.00   27.95
  -6   1   7  168.78   50.37
  -6   1   7  217.84   43.57
  -6   1   7  128.56   39.49
  -6   1   7   24.84   48.59
  -6   1   7  110.70   52.27
  -6   1   7   67.93   26.48
  -6   1   8  178.84   47.43
  -6   1   8   71.37   41.44
  -6   1   8  116.04   43.69
  -6   1   8   25.36   56.43
  -6   1   8  103.28   61.17
  -6   1   9    8.72   33.20
  -6   1   9  167.79   49.34
  -6   1   9   13.56   45.60
  -6   1   9  102.83   46.97
  -6   1   9   94.72   64.23
  -6   1   9  140.81   61.01
  -6   2 -11   77.35   38.15
  -6   2 -11   22.71   54.99
  -6   2 -11   79.60   34.58
  -6   2 -10   95.18   51.77
  -6   2 -10  134.57   39.02
  -6   2 -10  117.25   54.24
  -6   2 -10   70.42   37.40
  -6   2  -9  204.57   28.48
  -6   2  -9  225.40   51.14
  -6   2  -9  160.72   35.51
  -6   2  -8  177.02   44.84
  -6   2  -8  126.55   31.08
  -6   2  -8  130.80   45.70
  -6   2  -8  108.16   34.68
  -6   2  -7   37.19   30.31
  -6   2  -7   78.86   40.29
  -6   2  -7  116.72   44.55
  -6   2  -6  133.55   37.07
  -6   2  -6  162.68   40.26
  -6   2  -5  578.24   41.02
  -6   2  -5  671.44   44.09
  -6   2  -4  416.13   33.56
  -6   2  -4  460.06   38.13
  -6   2  -3  454.14   31.29
  -6   2  -2  340.22   25.92
  -6   2  -1  532.57   25.48
  -6   2  -1  606.41   36.03
  -6   2   0  422.06   34.43
  -6   2   0  465.57   29.70
  -6   2   1  316.01   31.53
  -6   2   1  372.02   31.06
  -6   2   2  284.07   31.27
  -6   2   2  365.53   33.22
  -6   2   2  319.18   29.77
  -6   2   3  519.91   40.04
  -6   2   3  468.29   33.50
  -6   2   3  316.42   21.31
  -6   2   4  396.59   34.63
  -6   2   4  241.29   24.98
  -6   2   4  420.55   44.26
  -6   2   4  294.56   30.80
  -6   2   5  444.70   38.50
  -6   2   5  279.33   29.97
  -6   2   5  292.04   30.63
  -6   2   6  314.53   42.03
  -6   2   6  162.43   30.41
  -6   2   6  232.95   33.25
  -6   2   6  291.80   38.13
  -6   2   7   88.97   43.00
  -6   2   7  111.31   24.62
  -6   2   8  459.76   46.37
  -6   2   8  602.60   52.64
  -6   2   8  580.43   58.41
  -6   2   8  632.68   56.97
  -6   2   9   49.39   39.99
  -6   2   9   89.99   55.12
  -6   2   9  198.20   47.32
  -6   2   9  215.45   57.32
  -6   2   9  330.69   57.92
  -6   3 -10  565.44   61.00
  -6   3 -10  402.06   38.08
  -6   3 -10  439.79   40.35
  -6   3 -10  646.15   63.56
  -6   3  -9  212.62   33.72
  -6   3  -9  187.59   35.09
  -6   3  -9  272.96   52.01
  -6   3  -8  209.00   34.64
  -6   3  -8  320.96   50.13
  -6   3  -8  283.93   36.22
  -6   3  -8  272.46   50.07
  -6   3  -7  729.95   53.79
  -6   3  -7  567.16   37.16
  -6   3  -7  641.63   50.36
  -6   3  -6  747.42   51.81
  -6   3  -6  752.09   48.90
  -6   3  -5  505.36   44.33
  -6   3  -5  524.38   40.78
  -6   3  -4  712.01   44.28
  -6   3  -4  620.13   40.25
  -6   3  -3  832.54   42.59
  -6   3  -3  774.95   38.96
  -6   3  -2 1097.77   45.44
  -6   3  -2 1028.00   39.14
  -6   3  -1  846.97   42.29
  -6   3  -1  789.01   31.99
  -6   3   0  374.23   34.97
  -6   3   0  348.78   29.78
  -6   3   1  356.44   32.92
  -6   3   1  401.23   34.59
  -6   3   1  425.76   37.43
  -6   3   2  194.17   31.58
  -6   3   2  212.49   32.93
  -6   3   2  284.68   35.69
  -6   3   3  325.53   39.12
  -6   3   3  328.36   32.47
  -6   3   4  322.14   43.22
  -6   3   4  308.62   33.84
  -6   3   5  177.42   36.28
  -6   3   5  117.19   27.27
  -6   3   5  151.99   45.64
  -6   3   5  109.01   30.31
  -6   3   6   57.09   39.26
  -6   3   6   78.39   30.53
  -6   3   6   27.20   47.29
  -6   3   6   38.82   27.20
  -6   3   7   70.76   35.23
  -6   3   7   45.20   22.62
  -6   3   7  122.30   44.47
  -6   3   8  241.88   54.21
  -6   3   8   92.33   44.11
  -6   3   8  136.89   41.00
  -6   3   9  130.41   56.56
  -6   3   9   -7.43   42.18
  -6   3   9   41.19   50.46
  -6   3   9   99.67   44.09
  -6   3  10    2.91   55.44
  -6   3  10   -9.42   41.18
  -6   3  10   80.57   47.92
  -6   3  10   23.55   56.31
  -6   4 -10  427.19   61.24
  -6   4 -10  255.77   36.33
  -6   4 -10  234.92   34.05
  -6   4 -10  241.30   30.96
  -6   4 -10  330.65   61.77
  -6   4  -9  186.53   38.69
  -6   4  -9  142.60   33.84
  -6   4  -9  206.10   53.97
  -6   4  -8  152.99   38.58
  -6   4  -8   84.36   33.62
  -6   4  -8  105.20   48.73
  -6   4  -7  368.08   40.49
  -6   4  -7  325.51   54.03
  -6   4  -7  365.70   48.90
  -6   4  -6  656.30   53.47
  -6   4  -6  614.79   50.07
  -6   4  -5  382.87   45.77
  -6   4  -5  350.05   43.40
  -6   4  -4  171.96   39.81
  -6   4  -4  125.08   36.90
  -6   4  -3  159.19   35.03
  -6   4  -3  143.16   34.47
  -6   4  -2  120.11   32.85
  -6   4  -2  108.85   30.35
  -6   4  -1  380.81   30.23
  -6   4  -1  305.94   37.87
  -6   4   0   37.26   34.04
  -6   4   0   91.99   29.56
  -6   4   1   52.43   34.46
  -6   4   1  -19.06   31.15
  -6   4   2   13.51   39.15
  -6   4   2   43.91   31.61
  -6   4   2  -29.42   30.96
  -6   4   3  -31.48   39.16
  -6   4   3   33.80   30.23
  -6   4   4   22.19   42.25
  -6   4   4   20.81   31.25
  -6   4   5   48.16   47.30
  -6   4   5   18.36   30.21
  -6   4   5   69.93   36.33
  -6   4   6   84.92   32.96
  -6   4   6   46.61   46.68
  -6   4   6   64.16   30.50
  -6   4   6   70.90   39.99
  -6   4   7   64.72   34.71
  -6   4   7   35.22   43.67
  -6   4   7   53.72   50.09
  -6   4   7   28.70   23.63
  -6   4   8   33.37   43.09
  -6   4   8   11.64   47.46
  -6   4   8   15.59   39.07
  -6   4   9  137.43   55.72
  -6   4   9   50.95   43.90
  -6   4   9   65.13   43.27
  -6   4  10   32.63   58.15
  -6   4  10   29.04   47.94
  -6   4  10    2.34   44.44
  -6   5  -9  118.71   56.59
  -6   5  -9   16.55   30.04
  -6   5  -9  143.02   42.30
  -6   5  -9   99.24   57.76
  -6   5  -9   31.15   31.11
  -6   5  -8  246.60   44.15
  -6   5  -8  169.06   53.73
  -6   5  -8   81.96   34.25
  -6   5  -7   -3.21   48.06
  -6   5  -7   85.67   51.74
  -6   5  -7  131.03   42.58
  -6   5  -6   84.79   45.93
  -6   5  -6  114.93   50.27
  -6   5  -6  137.37   41.06
  -6   5  -5   61.93   42.93
  -6   5  -5   44.46   45.65
  -6   5  -4   51.15   39.23
  -6   5  -4  125.97   43.11
  -6   5  -3   80.12   36.11
  -6   5  -3   80.53   38.78
  -6   5  -2   90.39   31.48
  -6   5  -2   93.36   36.05
  -6   5  -1   69.13   31.61
  -6   5  -1   81.03   36.61
  -6   5   0   86.53   36.22
  -6   5   0  112.17   31.20
  -6   5   1  321.91   38.42
  -6   5   1  231.53   35.80
  -6   5   2  297.96   39.30
  -6   5   2  201.14   35.66
  -6   5   3  352.94   35.87
  -6   5   3  362.75   48.74
  -6   5   4  344.64   36.42
  -6   5   4  312.47   50.34
  -6   5   5  354.20   39.40
  -6   5   5  213.78   37.27
  -6   5   5  344.87   48.98
  -6   5   6  182.74   41.62
  -6   5   6  130.81   33.71
  -6   5   6  246.04   50.22
  -6   5   7  148.96   45.65
  -6   5   8  190.04   47.16
  -6   5   8  207.40   42.77
  -6   5   9  256.69   48.91
  -6   5   9  174.98   47.84
  -6   5  10  153.07   50.60
  -6   5  10  155.91   50.00
  -6   5  10  291.11   61.06
  -6   5  10  229.41   64.61
  -6   6  -8  107.94   46.96
  -6   6  -8   50.70   30.66
  -6   6  -8   85.20   33.32
  -6   6  -8  153.48   57.22
  -6   6  -7   99.63   45.22
  -6   6  -7  164.20   55.07
  -6   6  -7  135.85   53.03
  -6   6  -6  381.73   57.67
  -6   6  -6  427.59   47.91
  -6   6  -6  355.41   54.53
  -6   6  -5  781.57   60.85
  -6   6  -5  715.08   55.65
  -6   6  -4  183.22   48.85
  -6   6  -4  180.71   43.96
  -6   6  -3   20.69   42.38
  -6   6  -3   12.45   38.89
  -6   6  -2   74.74   42.46
  -6   6  -2  158.58   36.76
  -6   6  -1  485.09   47.21
  -6   6  -1  383.42   39.67
  -6   6   0  743.12   51.89
  -6   6   0  813.16   42.25
  -6   6   1  257.54   43.36
  -6   6   1  309.17   38.97
  -6   6   2   85.46   41.59
  -6   6   2   30.88   36.50
  -6   6   3  158.35   37.96
  -6   6   3  323.60   50.15
  -6   6   4  590.03   43.05
  -6   6   4  635.40   56.54
  -6   6   5  288.77   40.60
  -6   6   5  271.48   43.21
  -6   6   5  222.80   54.44
  -6   6   6  109.17   41.75
  -6   6   6  145.05   36.72
  -6   6   7   50.52   46.08
  -6   6   7   32.43   45.42
  -6   6   9   93.98   49.14
  -6   6   9   82.45   47.17
  -6   6   9   97.73   58.01
  -6   6  10   53.28   49.17
  -6   6  10    9.86   59.87
  -6   7  -7  171.87   50.76
  -6   7  -7   83.16   57.84
  -6   7  -7   18.89   34.73
  -6   7  -6  272.71   56.44
  -6   7  -6  307.72   51.02
  -6   7  -6  323.42   58.22
  -6   7  -6  157.57   38.00
  -6   7  -5  448.78   57.60
  -6   7  -5  592.75   53.58
  -6   7  -5  538.57   61.25
  -6   7  -4  204.52   48.79
  -6   7  -4  161.50   53.56
  -6   7  -3   45.32   44.42
  -6   7  -3   45.90   48.81
  -6   7  -2  156.27   42.99
  -6   7  -2   93.62   46.26
  -6   7  -1   22.79   44.61
  -6   7   0   57.15   45.21
  -6   7   1    5.07   44.23
  -6   7   1  115.85   40.33
  -6   7   2   47.20   45.10
  -6   7   2  -42.14   40.43
  -6   7   3    8.31   39.22
  -6   7   4   23.46   39.62
  -6   7   4  226.74   54.09
  -6   7   5   75.47   40.90
  -6   7   5   65.43   41.73
  -6   7   6  119.72   47.48
  -6   7   6   60.93   43.87
  -6   7   7  148.45   48.76
  -6   7   8  252.50   60.34
  -6   7   9  260.76   59.92
  -6   7  10   85.73   50.84
  -6   7  10  176.45   64.62
  -6   8  -5   78.57   51.48
  -6   8  -5   18.10   54.63
  -6   8  -5   34.31   39.27
  -6   8  -4   66.24   51.44
  -6   8  -4   65.75   49.73
  -6   8  -4  116.97   54.69
  -6   8  -4   61.21   39.50
  -6   8  -3   99.76   41.38
  -6   8  -3   48.41   51.66
  -6   8  -3   32.55   47.56
  -6   8  -2   58.01   49.21
  -6   8  -2   67.80   48.27
  -6   8  -1  105.32   48.81
  -6   8   0  128.40   50.82
  -6   8   1   30.70   47.85
  -6   8   2   33.51   44.00
  -6   8   2   84.39   48.15
  -6   8   3   77.97   44.37
  -6   8   4  293.78   49.17
  -6   8   4  356.93   45.75
  -6   8   5  185.08   48.26
  -6   8   5  166.37   43.87
  -6   8   6  374.53   53.02
  -6   8   6  391.52   51.59
  -6   8   8  218.38   67.34
  -6   8   9  183.38   66.81
  -6   9  -4  185.02   45.52
  -6   9  -4  329.50   60.92
  -6   9  -4  307.15   58.32
  -6   9  -3  171.31   56.20
  -6   9  -3   71.18   45.16
  -6   9  -2  101.85   45.20
  -6   9  -1  151.85   47.18
  -6   9   1  475.51   46.26
  -6   9   2  200.51   49.71
  -6   9   3  154.49   50.02
  -6   9   4  166.84   48.44
  -6   9   5  294.17   49.71
  -6   9   7  547.12   65.54
  -6   9   8  332.54   65.39
  -6   9   9  219.60   66.37
  -6  10  -2   80.54   48.55
  -6  10  -1  127.73   53.16
  -6  10  -1  111.21   48.73
  -6  10   0  156.57   50.50
  -6  10   1  271.57   43.09
  -6  10   2  111.67   46.54
  -6  10   2  117.74   46.54
  -6  10   3  -23.06   50.81
  -6  11   0   42.42   54.97
  -6  11   2  182.96   46.08
  -6  11   3   49.78   56.56
  -6  11   4  122.28   56.38
  -5 -12 -11  199.24   73.39
  -5 -12 -11  111.18   61.56
  -5 -12 -10   57.43   66.72
  -5 -12 -10   53.15   60.18
  -5 -12  -9   -4.74   57.54
  -5 -12  -8  113.74   58.32
  -5 -12  -7  197.24   58.51
  -5 -12  -7  220.68   34.12
  -5 -12  -6  162.82   40.91
  -5 -12  -5  166.57   45.32
  -5 -12  -5  100.26   58.37
  -5 -12  -4  167.81   52.49
  -5 -12  -4  148.45   58.70
  -5 -11 -12  133.32   62.40
  -5 -11 -11  288.58   69.99
  -5 -11 -11  214.20   59.71
  -5 -11 -10  645.41   68.43
  -5 -11 -10  317.45   60.15
  -5 -11  -9  540.74   65.12
  -5 -11  -9  276.87   57.48
  -5 -11  -8  675.19   62.91
  -5 -11  -8  302.88   54.55
  -5 -11  -7  176.66   53.65
  -5 -11  -7  245.31   46.99
  -5 -11  -6  105.41   51.23
  -5 -11  -6  137.20   45.24
  -5 -11  -6  139.87   39.01
  -5 -11  -5  250.15   44.86
  -5 -11  -5  264.80   43.41
  -5 -11  -4  441.81   57.26
  -5 -11  -4  420.75   50.50
  -5 -11  -3  256.69   55.59
  -5 -11  -3  249.61   54.63
  -5 -11  -2   33.86   53.41
  -5 -11  -2  123.82   58.04
  -5 -11  -1   93.26   54.20
  -5 -11  -1   82.44   62.17
  -5 -10 -13  219.52   61.16
  -5 -10 -13  243.72   45.87
  -5 -10 -12  253.51   60.43
  -5 -10 -12  195.27   46.44
  -5 -10 -11   54.91   54.16
  -5 -10 -10  114.22   51.26
  -5 -10 -10   70.79   61.25
  -5 -10  -9  340.66   55.23
  -5 -10  -9  439.31   61.33
  -5 -10  -8  209.43   45.17
  -5 -10  -8  165.49   51.57
  -5 -10  -8  168.44   53.11
  -5 -10  -7   71.85   47.19
  -5 -10  -7  122.64   50.84
  -5 -10  -6   65.42   32.78
  -5 -10  -6   38.55   47.84
  -5 -10  -5  114.30   40.18
  -5 -10  -5  155.59   48.76
  -5 -10  -5   48.11   37.69
  -5 -10  -5   79.36   48.26
  -5 -10  -4  171.33   50.07
  -5 -10  -4   90.71   38.56
  -5 -10  -4   51.58   44.44
  -5 -10  -3   87.35   38.53
  -5 -10  -3  103.24   48.07
  -5 -10  -3   98.19   47.68
  -5 -10  -2   87.83   37.89
  -5 -10  -2   56.60   49.28
  -5 -10  -2  125.69   52.59
  -5 -10  -1   92.61   49.29
  -5 -10  -1  141.88   57.46
  -5 -10   0   66.91   50.40
  -5 -10   0   54.00   61.95
  -5  -9 -13  109.49   41.01
  -5  -9 -12  109.11   55.47
  -5  -9 -12  120.29   42.51
  -5  -9 -11   50.37   51.68
  -5  -9 -11   12.86   42.31
  -5  -9 -10  361.43   60.98
  -5  -9 -10  199.24   46.79
  -5  -9 -10  184.98   61.38
  -5  -9 -10  215.38   50.20
  -5  -9  -9  120.69   53.93
  -5  -9  -9   33.99   43.14
  -5  -9  -9   96.51   56.67
  -5  -9  -9   58.14   48.08
  -5  -9  -8  153.78   52.98
  -5  -9  -8   94.46   42.29
  -5  -9  -8   94.64   52.13
  -5  -9  -8   53.95   47.56
  -5  -9  -7   81.87   46.42
  -5  -9  -7  126.54   39.43
  -5  -9  -7  164.41   49.71
  -5  -9  -6  192.51   43.62
  -5  -9  -6   98.21   37.99
  -5  -9  -6  159.33   45.48
  -5  -9  -6  150.26   29.75
  -5  -9  -5  144.92   44.01
  -5  -9  -5  125.86   33.94
  -5  -9  -5   93.68   43.71
  -5  -9  -4  209.58   45.57
  -5  -9  -4  188.04   40.12
  -5  -9  -4  183.56   37.16
  -5  -9  -4  181.31   45.73
  -5  -9  -3  449.43   40.28
  -5  -9  -3  508.38   52.15
  -5  -9  -3  428.69   46.88
  -5  -9  -2  360.93   37.30
  -5  -9  -2  399.13   52.42
  -5  -9  -2  357.00   51.42
  -5  -9  -2  368.39   48.27
  -5  -9  -1  584.51   40.99
  -5  -9  -1  533.14   53.11
  -5  -9   0  230.67   34.91
  -5  -9   0  284.60   46.54
  -5  -9   1  304.29   47.70
  -5  -9   2  474.79   47.08
  -5  -8 -14  166.00   41.95
  -5  -8 -14  236.85   61.81
  -5  -8 -13  220.85   41.42
  -5  -8 -12  236.07   41.32
  -5  -8 -12  278.22   54.90
  -5  -8 -11  229.32   40.83
  -5  -8 -11  202.84   50.68
  -5  -8 -10  203.93   48.82
  -5  -8 -10  147.71   44.02
  -5  -8 -10  141.51   56.68
  -5  -8  -9  459.08   50.86
  -5  -8  -9  464.20   54.78
  -5  -8  -9  487.12   47.10
  -5  -8  -9  326.25   55.60
  -5  -8  -8  516.17   45.57
  -5  -8  -8  531.83   50.12
  -5  -8  -8  624.66   51.43
  -5  -8  -7  922.68   51.56
  -5  -8  -7  997.50   56.45
  -5  -8  -7 1050.29   57.87
  -5  -8  -6  531.57   43.46
  -5  -8  -6  476.24   46.88
  -5  -8  -6  433.97   39.95
  -5  -8  -6  458.67   43.10
  -5  -8  -5  185.98   35.66
  -5  -8  -5  178.69   40.13
  -5  -8  -5  134.10   30.87
  -5  -8  -5  142.52   40.95
  -5  -8  -4  267.31   41.57
  -5  -8  -4  194.82   36.14
  -5  -8  -4  250.32   43.18
  -5  -8  -3 1473.81   62.21
  -5  -8  -3 1416.57   60.53
  -5  -8  -3 1462.37   53.21
  -5  -8  -2  792.74   51.29
  -5  -8  -2  855.58   41.88
  -5  -8  -1  465.80   47.60
  -5  -8  -1  387.27   45.24
  -5  -8  -1  385.58   35.25
  -5  -8   0  448.39   50.69
  -5  -8   0  406.56   45.36
  -5  -8   0  332.22   33.39
  -5  -8   1  162.25   30.08
  -5  -8   1  215.89   42.51
  -5  -8   2  383.85   43.25
  -5  -8   3  185.37   65.88
  -5  -8   3  155.35   38.59
  -5  -7 -14  160.50   42.32
  -5  -7 -14  242.33   59.02
  -5  -7 -13  459.22   44.41
  -5  -7 -13  452.96   60.17
  -5  -7 -12  458.69   43.76
  -5  -7 -11  377.16   48.48
  -5  -7 -11  260.45   38.87
  -5  -7 -11  345.67   50.32
  -5  -7 -10  136.59   46.71
  -5  -7 -10  193.54   42.86
  -5  -7  -9  200.76   45.54
  -5  -7  -9  195.05   39.86
  -5  -7  -9  105.62   51.19
  -5  -7  -8  407.39   46.44
  -5  -7  -8  463.64   43.18
  -5  -7  -8  409.01   47.64
  -5  -7  -8  371.25   49.53
  -5  -7  -7  548.94   47.89
  -5  -7  -7  497.73   41.30
  -5  -7  -7  506.77   43.89
  -5  -7  -7  542.77   45.82
  -5  -7  -6  199.42   39.31
  -5  -7  -6  266.59   35.71
  -5  -7  -6  244.74   37.16
  -5  -7  -6  250.68   35.55
  -5  -7  -6  227.41   38.21
  -5  -7  -5  105.15   31.87
  -5  -7  -5  128.41   34.99
  -5  -7  -5   96.52   36.76
  -5  -7  -4   85.93   34.10
  -5  -7  -4   92.92   30.96
  -5  -7  -4  109.44   36.23
  -5  -7  -3  239.72   38.42
  -5  -7  -3  206.54   38.27
  -5  -7  -2  140.62   38.19
  -5  -7  -2   95.82   37.32
  -5  -7  -1  103.35   39.03
  -5  -7   0  -14.82   41.03
  -5  -7   0   -9.35   46.74
  -5  -7   0   17.53   36.63
  -5  -7   1   12.78   42.70
  -5  -7   1   19.09   25.78
  -5  -7   1   34.26   50.86
  -5  -7   1   46.65   38.48
  -5  -7   2  144.56   26.27
  -5  -7   2  170.97   47.95
  -5  -7   2   84.64   57.52
  -5  -7   2  173.62   39.13
  -5  -7   3  235.40   63.40
  -5  -7   3  182.79   38.32
  -5  -7   4  322.66   68.88
  -5  -7   4  217.70   33.52
  -5  -6 -14   59.90   43.86
  -5  -6 -14   39.93   55.75
  -5  -6 -13   82.04   41.11
  -5  -6 -13   42.50   52.51
  -5  -6 -12  189.19   47.90
  -5  -6 -12  110.04   40.72
  -5  -6 -11   99.97   44.66
  -5  -6 -11   80.70   39.16
  -5  -6 -11  111.95   46.28
  -5  -6 -10   32.15   38.63
  -5  -6 -10   53.86   42.58
  -5  -6  -9   76.68   36.44
  -5  -6  -9   52.20   40.65
  -5  -6  -8  112.75   43.68
  -5  -6  -8  150.92   38.58
  -5  -6  -8   80.02   35.19
  -5  -6  -8  124.86   34.07
  -5  -6  -7  187.71   44.15
  -5  -6  -7  202.65   34.73
  -5  -6  -7  175.35   42.08
  -5  -6  -7  219.78   38.20
  -5  -6  -6  451.56   39.95
  -5  -6  -6  394.43   33.82
  -5  -6  -6  412.43   39.18
  -5  -6  -6  410.95   35.57
  -5  -6  -6  451.41   38.20
  -5  -6  -5  496.35   39.41
  -5  -6  -5  490.22   34.85
  -5  -6  -5  554.88   36.88
  -5  -6  -4  140.06   32.04
  -5  -6  -4  123.97   32.31
  -5  -6  -3  577.81   39.53
  -5  -6  -3  593.25   38.94
  -5  -6  -2 2455.27   73.38
  -5  -6  -2 2478.09   71.66
  -5  -6  -2 2453.52   71.56
  -5  -6  -1 1265.38   53.58
  -5  -6  -1 1282.47   49.44
  -5  -6  -1 1360.70   55.99
  -5  -6   0  571.49   43.89
  -5  -6   0  560.40   47.87
  -5  -6   1  354.01   43.77
  -5  -6   1  359.07   36.66
  -5  -6   1  375.66   49.58
  -5  -6   2 1205.71   60.47
  -5  -6   2 1271.91   50.09
  -5  -6   2 1314.67   67.43
  -5  -6   3 1382.50   64.15
  -5  -6   3 1394.67   52.38
  -5  -6   3 1365.38   72.39
  -5  -6   4  887.87   44.19
  -5  -6   4 1046.26   71.61
  -5  -6   5  390.36   51.35
  -5  -6   5  351.74   66.91
  -5  -5 -14  102.56   44.08
  -5  -5 -14   65.56   52.51
  -5  -5 -13  216.50   46.01
  -5  -5 -13  183.67   52.94
  -5  -5 -12  392.29   45.04
  -5  -5 -12  427.75   51.92
  -5  -5 -11  672.38   50.59
  -5  -5 -11  571.53   44.81
  -5  -5 -10  438.37   43.52
  -5  -5 -10  396.12   45.95
  -5  -5  -9  323.90   41.79
  -5  -5  -9  345.95   40.22
  -5  -5  -8 1156.99   48.03
  -5  -5  -8 1246.03   52.02
  -5  -5  -8 1282.99   51.87
  -5  -5  -7 2206.29   66.39
  -5  -5  -7 2225.23   67.50
  -5  -5  -7 2135.72   68.94
  -5  -5  -7 2048.17   62.86
  -5  -5  -6 2093.86   63.30
  -5  -5  -6 2119.31   58.34
  -5  -5  -6 2067.58   64.92
  -5  -5  -6 2106.22   65.44
  -5  -5  -5 1446.68   48.61
  -5  -5  -5 1553.30   49.86
  -5  -5  -5 1554.03   50.47
  -5  -5  -5 1634.81   55.53
  -5  -5  -4 1640.26   54.67
  -5  -5  -4 1614.94   51.29
  -5  -5  -4 1470.27   48.63
  -5  -5  -3 1142.40   45.25
  -5  -5  -3 1152.53   46.79
  -5  -5  -3 1189.81   44.43
  -5  -5  -2 2726.67   74.46
  -5  -5  -2 2714.96   74.45
  -5  -5  -2 2789.74   73.80
  -5  -5  -1 1160.60   48.25
  -5  -5  -1 1250.25   47.97
  -5  -5  -1 1244.07   50.08
  -5  -5   0  643.54   41.27
  -5  -5   0  645.21   39.12
  -5  -5   0  687.11   47.52
  -5  -5   1  647.82   43.13
  -5  -5   1  679.44   50.53
  -5  -5   2  247.95   33.87
  -5  -5   2  315.84   50.68
  -5  -5   2  246.26   41.96
  -5  -5   3  180.68   33.27
  -5  -5   3  135.98   42.26
  -5  -5   3  151.97   51.13
  -5  -5   4  321.84   33.88
  -5  -5   4  352.21   59.07
  -5  -5   5  200.33   49.97
  -5  -5   5  270.97   61.37
  -5  -5   5  177.52   30.97
  -5  -5   6   36.08   61.68
  -5  -5   6   -5.15   44.81
  -5  -4 -14  263.94   53.14
  -5  -4 -14  328.91   45.95
  -5  -4 -13  235.94   49.75
  -5  -4 -13  273.61   47.07
  -5  -4 -13  322.80   51.71
  -5  -4 -12  749.18   50.94
  -5  -4 -12  671.73   54.88
  -5  -4 -11 1548.09   61.53
  -5  -4 -11 1689.91   66.42
  -5  -4 -10 1199.10   55.27
  -5  -4  -9  466.92   41.28
  -5  -4  -9  514.40   40.50
  -5  -4  -8  331.90   33.99
  -5  -4  -8  411.41   36.46
  -5  -4  -8  371.25   37.63
  -5  -4  -7 1007.31   43.84
  -5  -4  -7 1069.06   46.56
  -5  -4  -6 1800.78   57.67
  -5  -4  -6 1677.35   48.97
  -5  -4  -6 1696.72   54.14
  -5  -4  -5  865.00   34.04
  -5  -4  -5 1101.32   46.93
  -5  -4  -5 1136.57   44.34
  -5  -4  -5 1093.21   41.84
  -5  -4  -5 1096.18   38.63
  -5  -4  -5 1041.30   41.94
  -5  -4  -4  351.99   28.12
  -5  -4  -4  386.74   34.47
  -5  -4  -4  303.38   23.49
  -5  -4  -4  375.48   34.23
  -5  -4  -4  418.97   31.04
  -5  -4  -3   43.84   28.37
  -5  -4  -3    8.46   27.95
  -5  -4  -2   35.04   28.28
  -5  -4  -2   16.24   28.74
  -5  -4  -2   49.43   28.49
  -5  -4  -1   54.53   28.32
  -5  -4  -1   26.62   33.48
  -5  -4  -1   65.17   29.99
  -5  -4   0   48.74   27.69
  -5  -4   0   68.04   37.82
  -5  -4   0   59.14   31.21
  -5  -4   1   34.83   25.69
  -5  -4   1   -5.49   40.07
  -5  -4   1   31.10   31.52
  -5  -4   2   11.00   43.65
  -5  -4   2   34.52   32.89
  -5  -4   3  288.40   31.87
  -5  -4   3  359.91   40.99
  -5  -4   3  336.83   49.33
  -5  -4   4  538.73   47.14
  -5  -4   4  440.86   34.31
  -5  -4   4  530.27   54.66
  -5  -4   5  170.90   29.71
  -5  -4   5  158.59   27.10
  -5  -4   5  207.68   55.42
  -5  -4   6   59.07   58.45
  -5  -4   6   25.11   25.63
  -5  -4   6   84.53   47.00
  -5  -4   6   68.58   40.49
  -5  -4   6    5.44   28.66
  -5  -4   7   15.35   30.81
  -5  -4   7  118.07   63.87
  -5  -4   7  150.61   44.27
  -5  -3 -13  117.06   48.35
  -5  -3 -13   88.16   44.32
  -5  -3 -13   88.20   46.11
  -5  -3 -12   59.81   44.78
  -5  -3 -12   32.72   43.31
  -5  -3 -12   49.79   43.28
  -5  -3 -11  138.16   44.59
  -5  -3 -11  128.06   43.33
  -5  -3 -10   79.74   37.72
  -5  -3  -9   18.62   32.99
  -5  -3  -9   36.91   34.38
  -5  -3  -8    4.73   32.51
  -5  -3  -8  -14.72   32.71
  -5  -3  -7  224.84   33.42
  -5  -3  -7  215.92   33.92
  -5  -3  -6  415.58   24.51
  -5  -3  -6  392.93   32.90
  -5  -3  -6  419.56   33.79
  -5  -3  -5  472.75   28.04
  -5  -3  -5  530.66   33.20
  -5  -3  -5  515.92   34.35
  -5  -3  -4  141.83   23.48
  -5  -3  -4  118.74   28.71
  -5  -3  -4  124.25   23.34
  -5  -3  -4  128.16   29.07
  -5  -3  -3  198.23   22.85
  -5  -3  -3  247.96   27.84
  -5  -3  -3  229.76   24.77
  -5  -3  -3  243.85   23.09
  -5  -3  -3  247.36   25.92
  -5  -3  -2 1342.88   45.72
  -5  -3  -1 3507.19   86.67
  -5  -3  -1 3628.54   88.41
  -5  -3   0 1380.51   47.32
  -5  -3   0 1286.48   45.30
  -5  -3   0 1357.56   51.44
  -5  -3   1  894.12   40.61
  -5  -3   1  739.79   36.64
  -5  -3   1  867.59   47.36
  -5  -3   2  635.23   39.85
  -5  -3   2  672.20   46.04
  -5  -3   3  911.64   46.13
  -5  -3   3  843.78   38.09
  -5  -3   3  964.56   34.92
  -5  -3   3  932.49   53.83
  -5  -3   4  937.85   38.48
  -5  -3   4 1125.30   58.30
  -5  -3   4  881.51   38.59
  -5  -3   4  952.26   50.20
  -5  -3   4  955.19   45.86
  -5  -3   5  447.83   31.71
  -5  -3   5  402.16   35.45
  -5  -3   5  569.38   54.87
  -5  -3   5  486.73   43.15
  -5  -3   6  306.40   46.50
  -5  -3   6  226.32   29.03
  -5  -3   6  169.24   36.91
  -5  -3   6  279.57   44.75
  -5  -3   6  319.49   57.46
  -5  -3   7  250.33   49.57
  -5  -3   7  233.24   24.95
  -5  -3   7  286.30   48.19
  -5  -3   7  273.87   40.86
  -5  -3   7  301.26   63.45
  -5  -3   7  266.84   40.03
  -5  -3   8  212.26   67.30
  -5  -3   8  236.30   41.88
  -5  -3   8  167.12   27.93
  -5  -3   8  210.43   50.14
  -5  -3   8  233.91   41.53
  -5  -2 -13   91.06   46.27
  -5  -2 -13  105.97   46.36
  -5  -2 -13   77.86   41.44
  -5  -2 -12  178.58   45.09
  -5  -2 -12  244.21   45.66
  -5  -2 -12  197.97   43.57
  -5  -2 -11  972.23   55.04
  -5  -2 -11  965.50   55.21
  -5  -2 -11  910.96   50.70
  -5  -2 -10  876.73   50.48
  -5  -2 -10  856.64   48.04
  -5  -2  -9  882.48   45.64
  -5  -2  -8  894.62   43.35
  -5  -2  -8  816.36   41.69
  -5  -2  -7 1973.76   60.00
  -5  -2  -7 1910.74   59.49
  -5  -2  -6 1855.93   56.52
  -5  -2  -6 1750.28   55.00
  -5  -2  -5 2201.95   63.50
  -5  -2  -5 2291.21   62.30
  -5  -2  -4 1243.34   39.59
  -5  -2  -4 1159.39   42.95
  -5  -2  -4 1293.23   43.16
  -5  -2  -3 1477.32   45.19
  -5  -2  -3 1329.33   40.40
  -5  -2  -3 1465.62   46.29
  -5  -2  -2 1570.65   47.33
  -5  -2  -2 1296.68   38.04
  -5  -2  -2 1364.35   43.67
  -5  -2  -2 1552.23   46.19
  -5  -2  -1 2148.73   60.00
  -5  -2  -1 2335.97   61.79
  -5  -2  -1 2267.64   60.55
  -5  -2   0  817.50   38.90
  -5  -2   0  722.79   35.02
  -5  -2   0  727.80   41.59
  -5  -2   1  230.64   28.15
  -5  -2   1  341.18   23.89
  -5  -2   1  316.88   38.58
  -5  -2   2 1068.97   50.19
  -5  -2   3  381.55   40.63
  -5  -2   4   93.89   31.92
  -5  -2   4  107.45   29.01
  -5  -2   4   99.38   32.89
  -5  -2   4   79.06   40.40
  -5  -2   4   56.13   25.67
  -5  -2   5   57.50   27.55
  -5  -2   5   71.03   35.95
  -5  -2   5   91.07   33.43
  -5  -2   5   71.27   44.78
  -5  -2   6  152.02   41.84
  -5  -2   6  105.98   37.31
  -5  -2   6   76.01   26.80
  -5  -2   6   23.51   33.89
  -5  -2   6   92.81   41.87
  -5  -2   6   60.90   49.42
  -5  -2   7   65.42   56.06
  -5  -2   7  148.38   45.18
  -5  -2   7   86.08   42.48
  -5  -2   7   94.77   26.33
  -5  -2   7   22.94   38.17
  -5  -2   7   95.66   43.87
  -5  -2   7   69.50   33.93
  -5  -2   8   43.98   60.49
  -5  -2   8   36.25   45.42
  -5  -2   8   27.74   48.86
  -5  -2   8   31.41   22.47
  -5  -2   8    6.33   22.86
  -5  -2   8   26.08   40.73
  -5  -2   8   95.23   44.58
  -5  -2   8   44.19   35.21
  -5  -1 -13  504.80   54.11
  -5  -1 -13  311.17   39.49
  -5  -1 -12  412.23   48.56
  -5  -1 -12  299.24   46.14
  -5  -1 -12  314.11   41.29
  -5  -1 -11  930.55   53.04
  -5  -1 -11  907.68   52.21
  -5  -1 -11  815.81   47.87
  -5  -1 -10 1381.05   58.94
  -5  -1 -10 1362.68   56.30
  -5  -1 -10 1207.09   51.87
  -5  -1  -9  934.58   45.52
  -5  -1  -8  788.71   45.52
  -5  -1  -7  951.11   44.97
  -5  -1  -7  913.28   41.54
  -5  -1  -6  594.82   35.84
  -5  -1  -6  574.62   33.20
  -5  -1  -5  331.27   26.12
  -5  -1  -5  369.57   31.19
  -5  -1  -5  382.53   29.29
  -5  -1  -4  347.92   28.10
  -5  -1  -4  336.51   30.07
  -5  -1  -4  349.13   28.46
  -5  -1  -3   47.61   24.59
  -5  -1  -3   41.95   26.40
  -5  -1  -3   47.05   25.14
  -5  -1  -2  169.82   25.52
  -5  -1  -2  180.00   28.40
  -5  -1  -1   64.74   26.90
  -5  -1  -1   45.64   27.05
  -5  -1  -1   79.60   24.85
  -5  -1   0  216.56   29.44
  -5  -1   0  220.61   26.57
  -5  -1   1   65.05   31.04
  -5  -1   1   93.14   24.78
  -5  -1   1  115.59   23.63
  -5  -1   2  210.44   34.12
  -5  -1   2  215.29   26.52
  -5  -1   2  177.08   27.59
  -5  -1   3   40.07   32.63
  -5  -1   3   26.31   34.91
  -5  -1   4  689.02   45.78
  -5  -1   4  693.35   36.84
  -5  -1   5  550.21   35.01
  -5  -1   5  533.35   48.84
  -5  -1   5  505.36   37.57
  -5  -1   5  543.80   40.89
  -5  -1   6  149.15   34.78
  -5  -1   6  172.43   37.37
  -5  -1   6  218.18   39.86
  -5  -1   6  218.37   48.09
  -5  -1   7   58.40   52.58
  -5  -1   7   92.28   41.55
  -5  -1   7   94.53   39.88
  -5  -1   7   44.37   37.51
  -5  -1   7  144.39   40.51
  -5  -1   7   43.56   29.52
  -5  -1   8  102.78   60.73
  -5  -1   8  177.44   45.85
  -5  -1   8  167.71   47.02
  -5  -1   8   28.98   28.32
  -5  -1   8   53.94   42.32
  -5  -1   8  152.37   41.82
  -5  -1   8  107.54   31.08
  -5  -1   8  107.80   30.42
  -5  -1   9  134.31   64.96
  -5  -1   9  143.95   48.35
  -5  -1   9  199.66   51.60
  -5  -1   9  103.58   26.20
  -5  -1   9  129.70   25.68
  -5  -1   9  110.78   45.98
  -5  -1   9  114.18   28.44
  -5  -1   9   79.18   26.35
  -5  -1   9  177.44   45.95
  -5  -1   9  174.36   35.81
  -5   0 -12   77.06   32.47
  -5   0 -12   85.99   49.36
  -5   0 -12   64.90   41.61
  -5   0 -11   28.23   35.75
  -5   0 -11   -4.51   45.71
  -5   0 -11   44.97   38.92
  -5   0 -10   21.02   34.92
  -5   0 -10   10.16   41.87
  -5   0 -10   26.73   35.84
  -5   0  -9   58.60   33.53
  -5   0  -9   44.02   34.97
  -5   0  -8  157.12   39.03
  -5   0  -8   50.78   12.46
  -5   0  -7  122.13   34.97
  -5   0  -7  116.46   27.43
  -5   0  -6  313.69   31.41
  -5   0  -6  307.37   36.57
  -5   0  -6  259.45   27.43
  -5   0  -5  842.49   37.70
  -5   0  -5  886.63   40.73
  -5   0  -5  801.21   36.01
  -5   0  -4  624.36   35.53
  -5   0  -4  661.57   31.50
  -5   0  -2  635.42   35.71
  -5   0  -1  393.34   30.21
  -5   0  -1  350.59   28.31
  -5   0   0 1688.72   48.62
  -5   0   0 1581.17   45.09
  -5   0   1  420.11   28.83
  -5   0   1  445.28   30.30
  -5   0   1  433.64   31.49
  -5   0   2  146.20   26.44
  -5   0   2  199.77   25.73
  -5   0   2  169.44   32.56
  -5   0   3  274.68   28.06
  -5   0   3  198.99   25.04
  -5   0   3  263.50   35.35
  -5   0   4  849.29   46.23
  -5   0   4  906.86   38.00
  -5   0   4  841.53   46.73
  -5   0   5  573.44   36.91
  -5   0   5  646.52   48.75
  -5   0   5  584.62   37.17
  -5   0   5  716.15   47.34
  -5   0   5  602.22   32.61
  -5   0   6  580.78   42.35
  -5   0   6  536.12   42.75
  -5   0   6  502.17   32.58
  -5   0   6  587.36   51.92
  -5   0   7  489.45   43.37
  -5   0   7  493.18   45.52
  -5   0   7  426.28   30.73
  -5   0   7  578.58   59.01
  -5   0   7  566.01   43.42
  -5   0   8  233.78   43.37
  -5   0   8  167.19   44.73
  -5   0   8  153.19   43.30
  -5   0   8  197.77   58.92
  -5   0   8  121.30   63.35
  -5   0   8   94.62   23.08
  -5   0   8  164.00   26.24
  -5   0   9  166.02   63.58
  -5   0   9  305.97   67.87
  -5   0   9  260.28   49.36
  -5   0   9  181.27   49.98
  -5   0   9   28.08   32.72
  -5   0   9  169.24   47.30
  -5   0   9   42.69   11.44
  -5   0   9  154.28   43.68
  -5   1 -12   68.14   50.49
  -5   1 -11  175.56   32.02
  -5   1 -11  251.68   50.35
  -5   1 -11  239.52   39.79
  -5   1 -10  993.27   57.65
  -5   1 -10 1026.91   48.10
  -5   1 -10  921.11   43.68
  -5   1  -9 1271.42   49.56
  -5   1  -9 1349.87   51.84
  -5   1  -9 1383.31   64.54
  -5   1  -8  796.68   29.54
  -5   1  -8  971.21   50.77
  -5   1  -8  979.83   52.80
  -5   1  -8  808.36   40.08
  -5   1  -7  609.45   43.61
  -5   1  -7  650.24   44.45
  -5   1  -6 1918.63   62.11
  -5   1  -6 1955.47   62.51
  -5   1  -6 1799.31   55.15
  -5   1  -5 1434.64   52.10
  -5   1  -5 1404.16   49.81
  -5   1  -4 1071.54   44.42
  -5   1  -4 1027.32   41.63
  -5   1  -3  346.14   26.36
  -5   1  -2 1344.60   39.35
  -5   1  -2 1604.88   49.13
  -5   1  -1  771.61   38.24
  -5   1  -1  873.60   35.03
  -5   1   0  576.66   31.68
  -5   1   0  668.65   29.50
  -5   1   1  317.62   27.53
  -5   1   1  397.55   29.46
  -5   1   2  446.30   29.23
  -5   1   2  405.19   28.78
  -5   1   3  760.15   34.04
  -5   1   3  915.45   36.62
  -5   1   4  290.11   35.68
  -5   1   4  244.63   30.85
  -5   1   5   58.53   40.25
  -5   1   5   58.67   32.04
  -5   1   5   54.58   38.06
  -5   1   5   43.75   24.05
  -5   1   5   46.13   27.47
  -5   1   6   84.25   40.65
  -5   1   6   53.51   32.22
  -5   1   6  101.77   46.26
  -5   1   6   70.19   23.15
  -5   1   7  344.04   40.78
  -5   1   7  219.71   52.02
  -5   1   7  393.20   51.68
  -5   1   7  188.32   22.94
  -5   1   7  368.43   53.24
  -5   1   8  187.81   46.06
  -5   1   8   55.53   56.49
  -5   1   8  198.03   43.09
  -5   1   8  251.16   61.72
  -5   1   8  240.87   56.08
  -5   1   9   11.37   31.00
  -5   1   9   24.39   46.51
  -5   1   9   52.34   45.43
  -5   1   9   -2.36   60.28
  -5   1   9   72.53   66.59
  -5   1   9   -6.14   60.01
  -5   1  10  140.16   49.52
  -5   1  10   80.46   49.56
  -5   1  10   20.67   33.99
  -5   1  10  122.22   39.91
  -5   1  10   45.45   41.87
  -5   1  10  212.57   69.98
  -5   1  10   50.08   48.83
  -5   2 -11  561.57   55.68
  -5   2 -11  597.97   63.38
  -5   2 -10  400.59   52.34
  -5   2 -10  298.31   32.66
  -5   2 -10  337.54   37.36
  -5   2 -10  375.63   56.35
  -5   2  -9  238.66   35.34
  -5   2  -9  231.73   33.02
  -5   2  -9  267.80   49.16
  -5   2  -8  662.48   32.60
  -5   2  -8  533.84   35.29
  -5   2  -8  574.62   50.47
  -5   2  -7  673.92   47.28
  -5   2  -7  637.39   33.34
  -5   2  -7  550.29   34.75
  -5   2  -7  585.66   46.32
  -5   2  -6  863.71   46.76
  -5   2  -6  859.23   45.11
  -5   2  -5  221.46   35.23
  -5   2  -5  223.39   32.42
  -5   2  -4  245.28   32.87
  -5   2  -4  170.44   29.63
  -5   2  -3  269.65   29.76
  -5   2  -2  635.56   30.90
  -5   2  -1  172.44   20.44
  -5   2  -1  206.96   29.00
  -5   2   0   53.10   23.53
  -5   2   0   45.47   13.87
  -5   2   0   10.31   15.37
  -5   2   0   41.67   25.50
  -5   2   1   44.24   27.83
  -5   2   1    3.20   24.97
  -5   2   2   19.20   25.54
  -5   2   2   30.81   24.92
  -5   2   3  152.13   26.68
  -5   2   3   25.93   26.14
  -5   2   3  119.99   31.90
  -5   2   4   12.54   28.55
  -5   2   5  183.86   34.19
  -5   2   5  123.33   27.48
  -5   2   5  104.21   24.25
  -5   2   6  257.89   38.35
  -5   2   6  246.75   43.09
  -5   2   6  116.27   24.04
  -5   2   6  198.79   32.12
  -5   2   6  256.32   39.74
  -5   2   7   92.58   35.64
  -5   2   7   62.59   44.43
  -5   2   7  139.46   47.87
  -5   2   8   13.94   49.72
  -5   2   8   31.96   38.95
  -5   2   8   -3.65   34.37
  -5   2   8   36.48   48.02
  -5   2   8   70.18   48.73
  -5   2   9  178.58   46.33
  -5   2   9   58.68   58.00
  -5   2   9   10.98   35.67
  -5   2   9   86.40   49.70
  -5   2   9  169.33   50.35
  -5   2   9  207.51   57.02
  -5   2  10    8.45   34.94
  -5   2  10   25.77   61.06
  -5   2  10  161.31   49.40
  -5   2  10   51.77   37.89
  -5   2  10  120.46   64.73
  -5   3 -10  130.90   54.40
  -5   3 -10   54.06   30.57
  -5   3 -10   91.44   50.90
  -5   3 -10   15.16   20.15
  -5   3  -9  298.50   32.87
  -5   3  -9  326.48   53.04
  -5   3  -9  242.43   34.02
  -5   3  -9  343.23   51.98
  -5   3  -9  193.25   31.59
  -5   3  -8  196.63   33.12
  -5   3  -8  200.57   45.81
  -5   3  -8  155.64   30.73
  -5   3  -7  192.60   41.66
  -5   3  -7  214.33   33.11
  -5   3  -7  192.55   44.18
  -5   3  -7  148.04   29.18
  -5   3  -6  129.36   39.11
  -5   3  -6  118.15   37.23
  -5   3  -5  207.22   37.21
  -5   3  -5  160.49   34.73
  -5   3  -4  351.17   36.44
  -5   3  -4  312.75   34.83
  -5   3  -3  226.03   29.89
  -5   3  -2  138.69   26.20
  -5   3  -1  377.96   26.74
  -5   3  -1  345.92   25.32
  -5   3  -1  391.75   27.65
  -5   3  -1  346.45   31.77
  -5   3   0  658.18   32.33
  -5   3   0  587.14   24.84
  -5   3   0  561.27   27.18
  -5   3   0  566.55   35.75
  -5   3   1  646.52   35.41
  -5   3   1  519.80   32.75
  -5   3   2  523.15   36.67
  -5   3   2  575.30   33.73
  -5   3   2  552.23   31.17
  -5   3   3  647.57   41.13
  -5   3   3  637.33   34.29
  -5   3   3  679.02   33.69
  -5   3   4  365.73   39.03
  -5   3   4  375.83   33.06
  -5   3   5  537.22   30.59
  -5   3   5  658.20   47.32
  -5   3   5  622.89   39.46
  -5   3   6  324.27   38.97
  -5   3   6  278.35   33.48
  -5   3   6  228.17   24.77
  -5   3   7  190.83   41.53
  -5   3   7  228.03   39.87
  -5   3   7  150.71   35.51
  -5   3   8  302.52   49.90
  -5   3   8  296.50   42.06
  -5   3   8  307.71   40.47
  -5   3   9  314.67   46.07
  -5   3   9  215.80   55.54
  -5   3   9  289.79   52.01
  -5   3   9  344.53   54.31
  -5   3   9  182.95   41.21
  -5   3  10  166.67   49.42
  -5   3  10   35.89   57.39
  -5   3  10  151.30   51.28
  -5   3  10  151.07   57.57
  -5   3  10   -5.69   40.12
  -5   4 -10  260.15   59.71
  -5   4  -9  507.07   41.59
  -5   4  -9  498.76   56.27
  -5   4  -9  590.39   59.12
  -5   4  -9  344.58   31.07
  -5   4  -9  265.89   28.26
  -5   4  -8  622.15   42.82
  -5   4  -8  600.97   55.75
  -5   4  -8  377.62   32.47
  -5   4  -7  694.34   42.83
  -5   4  -7  731.95   56.43
  -5   4  -7  678.75   52.95
  -5   4  -7  493.18   33.88
  -5   4  -6  614.38   50.00
  -5   4  -6  596.67   51.79
  -5   4  -6  621.17   40.82
  -5   4  -5  454.66   43.01
  -5   4  -5  526.95   45.57
  -5   4  -4  740.76   43.89
  -5   4  -4  798.47   46.74
  -5   4  -3  932.02   43.75
  -5   4  -3 1033.09   46.81
  -5   4  -2  690.32   35.75
  -5   4  -2  756.97   36.75
  -5   4  -1  525.86   30.89
  -5   4  -1  598.22   30.66
  -5   4  -1  604.13   36.47
  -5   4  -1  516.22   32.72
  -5   4   0  735.24   35.82
  -5   4   0  751.47   31.04
  -5   4   0  816.06   40.39
  -5   4   0  700.59   33.50
  -5   4   1 1005.34   44.06
  -5   4   1 1118.36   47.78
  -5   4   1 1028.23   41.17
  -5   4   2  783.40   39.06
  -5   4   2  833.21   46.08
  -5   4   2  816.51   35.94
  -5   4   3  900.17   40.25
  -5   4   3  955.56   46.81
  -5   4   3  826.11   38.22
  -5   4   4  604.19   42.89
  -5   4   4  578.28   36.80
  -5   4   5  246.17   30.27
  -5   4   5  314.34   41.85
  -5   4   5  263.06   35.82
  -5   4   6  110.40   43.30
  -5   4   6   67.69   24.74
  -5   4   6   83.38   36.51
  -5   4   7   87.53   40.69
  -5   4   7   94.64   35.82
  -5   4   7   23.27   45.13
  -5   4   8   78.07   39.48
  -5   4   8  100.29   44.99
  -5   4   8  126.19   40.26
  -5   4   9  107.10   52.46
  -5   4   9   66.87   41.23
  -5   4   9  112.16   43.83
  -5   4  10  101.51   51.76
  -5   4  10    3.21   42.63
  -5   4  10   12.55   53.10
  -5   4  10    5.28   48.24
  -5   4  11   48.61   52.06
  -5   4  11   -1.40   45.82
  -5   4  11   -0.72   41.66
  -5   5  -9  200.03   42.58
  -5   5  -9  257.00   58.44
  -5   5  -8  289.23   43.99
  -5   5  -8  210.09   29.62
  -5   5  -8  352.76   55.85
  -5   5  -7  338.09   42.53
  -5   5  -7  314.19   53.54
  -5   5  -7  335.74   52.70
  -5   5  -6  496.03   53.87
  -5   5  -6  550.19   45.19
  -5   5  -6  493.87   51.36
  -5   5  -5  541.50   51.09
  -5   5  -5  472.15   46.79
  -5   5  -4  209.14   43.72
  -5   5  -4  167.05   39.68
  -5   5  -3  165.66   38.51
  -5   5  -3  169.89   36.05
  -5   5  -2  207.29   33.26
  -5   5  -2  180.97   35.84
  -5   5  -2  181.38   32.85
  -5   5  -1  535.84   34.16
  -5   5  -1  512.86   39.98
  -5   5  -1  573.91   38.62
  -5   5   0  369.67   30.05
  -5   5   0  361.73   31.81
  -5   5   0  280.04   38.14
  -5   5   0  326.37   30.98
  -5   5   1   67.21   30.49
  -5   5   1   75.17   33.14
  -5   5   1   94.72   26.90
  -5   5   2   -9.95   29.20
  -5   5   2   10.18   35.33
  -5   5   2  100.83   39.33
  -5   5   3   78.29   29.42
  -5   5   3   20.35   32.02
  -5   5   3   59.41   39.63
  -5   5   4   96.98   32.02
  -5   5   4   73.48   39.77
  -5   5   5   54.70   34.76
  -5   5   5   29.47   31.19
  -5   5   5  100.14   39.63
  -5   5   6   48.20   36.91
  -5   5   6   72.05   26.72
  -5   5   6  102.44   44.58
  -5   5   7   76.72   41.04
  -5   5   8  -45.49   39.77
  -5   5   8   -6.14   41.62
  -5   5   8  -36.74   44.10
  -5   5   9  111.70   44.59
  -5   5   9   20.12   44.37
  -5   5  10   51.63   46.32
  -5   5  10   35.98   47.86
  -5   5  10  -72.31   59.90
  -5   5  11   36.50   52.60
  -5   5  11   81.55   48.46
  -5   5  11   14.87   45.59
  -5   6  -8  131.29   47.91
  -5   6  -8  151.65   56.44
  -5   6  -8   30.18   23.89
  -5   6  -8   55.19   25.46
  -5   6  -7  193.99   45.65
  -5   6  -7  173.88   52.85
  -5   6  -7   48.65   28.79
  -5   6  -6  104.31   49.30
  -5   6  -6  132.37   50.99
  -5   6  -6  177.87   44.92
  -5   6  -5  130.13   46.70
  -5   6  -5  133.20   48.25
  -5   6  -5  139.55   43.09
  -5   6  -4  179.97   46.99
  -5   6  -4  159.26   43.89
  -5   6  -3   75.49   41.91
  -5   6  -3   38.10   36.57
  -5   6  -3   63.56   41.76
  -5   6  -2   57.41   38.88
  -5   6  -2   90.25   34.80
  -5   6  -2   46.44   33.25
  -5   6  -1  305.47   40.59
  -5   6  -1  162.52   38.05
  -5   6  -1  234.16   34.26
  -5   6   0  339.47   32.39
  -5   6   0  315.40   33.34
  -5   6   0  271.64   42.03
  -5   6   0  288.08   36.85
  -5   6   1  195.89   31.97
  -5   6   1  151.68   39.27
  -5   6   1  145.61   33.73
  -5   6   2   59.90   38.02
  -5   6   2    4.61   31.26
  -5   6   3  312.11   44.34
  -5   6   3  187.99   38.06
  -5   6   3  204.00   32.98
  -5   6   4  607.16   50.28
  -5   6   4  539.88   39.49
  -5   6   5  584.77   42.76
  -5   6   5  455.18   39.20
  -5   6   5  561.60   52.65
  -5   6   6  244.08   44.70
  -5   6   6  249.89   41.50
  -5   6   7  129.78   43.20
  -5   6   7  105.86   44.00
  -5   6   8  132.78   47.00
  -5   6   9  345.51   50.27
  -5   6   9  367.19   51.22
  -5   6  10  160.64   50.31
  -5   6  10  336.01   57.29
  -5   6  10  254.43   52.13
  -5   6  11   71.89   49.24
  -5   6  11   32.06   59.80
  -5   7  -7  160.02   50.42
  -5   7  -7   70.83   29.17
  -5   7  -7  127.58   57.38
  -5   7  -6  379.74   52.04
  -5   7  -6  237.18   34.86
  -5   7  -6  387.83   58.30
  -5   7  -5  323.16   49.46
  -5   7  -5  219.49   37.08
  -5   7  -5  285.74   53.16
  -5   7  -4  202.59   36.36
  -5   7  -4  207.80   49.85
  -5   7  -4  302.64   50.04
  -5   7  -3  428.48   47.63
  -5   7  -3  415.11   50.33
  -5   7  -3  386.48   49.51
  -5   7  -2  347.44   43.62
  -5   7  -2  341.05   43.58
  -5   7  -2  395.78   46.93
  -5   7  -1  774.51   45.44
  -5   7  -1  675.12   50.06
  -5   7  -1  749.74   51.87
  -5   7   0 1034.59   48.20
  -5   7   0  980.15   57.02
  -5   7   0  985.99   52.65
  -5   7   1  591.44   48.98
  -5   7   1  577.96   43.96
  -5   7   1  542.63   41.87
  -5   7   2  133.41   42.90
  -5   7   2    7.11   36.60
  -5   7   3  289.55   43.78
  -5   7   3  246.08   36.73
  -5   7   4  418.31   40.95
  -5   7   5  797.31   52.77
  -5   7   5  928.00   50.35
  -5   7   6  331.74   46.99
  -5   7   6  337.33   45.67
  -5   7   7  130.16   45.00
  -5   7   7   92.15   45.26
  -5   7   8  121.73   47.44
  -5   7   8   47.55   48.56
  -5   7   9  338.01   55.39
  -5   7  10  246.15   59.09
  -5   7  11  162.85   61.45
  -5   8  -6  372.80   55.29
  -5   8  -6  271.09   62.07
  -5   8  -5  480.34   54.80
  -5   8  -5  493.12   60.70
  -5   8  -5  316.09   40.49
  -5   8  -4  306.54   50.85
  -5   8  -4  154.31   40.06
  -5   8  -4  253.99   54.30
  -5   8  -3  100.67   46.46
  -5   8  -3  158.91   49.26
  -5   8  -2  181.59   41.35
  -5   8  -2  207.89   46.15
  -5   8  -2  234.14   49.81
  -5   8  -1  241.40   47.59
  -5   8  -1  168.75   46.70
  -5   8  -1  204.77   42.31
  -5   8   0  239.45   35.25
  -5   8   0  193.80   41.60
  -5   8   0  204.63   44.11
  -5   8   0  222.37   46.88
  -5   8   1  169.09   42.93
  -5   8   1  156.67   46.89
  -5   8   1  172.13   44.49
  -5   8   2   55.11   41.27
  -5   8   2   86.49   40.12
  -5   8   3   68.30   43.58
  -5   8   3  -18.12   38.70
  -5   8   4  145.22   43.30
  -5   8   4  190.03   40.16
  -5   8   5   47.70   43.86
  -5   8   5   75.78   42.89
  -5   8   6   44.10   44.76
  -5   8   6   13.93   43.87
  -5   8   7  -11.34   47.23
  -5   8   7   88.79   54.40
  -5   8   7  -18.30   47.72
  -5   8   8   -4.21   61.99
  -5   8  10   49.77   52.10
  -5   8  10  136.68   61.67
  -5   9  -4   26.12   39.85
  -5   9  -4   36.54   56.64
  -5   9  -4   75.08   53.17
  -5   9  -3    3.63   52.91
  -5   9  -3   51.24   41.72
  -5   9  -2   23.99   42.00
  -5   9  -2  -15.62   51.47
  -5   9  -2   40.10   48.32
  -5   9  -1   -2.03   45.33
  -5   9  -1  -40.71   50.21
  -5   9  -1    8.26   42.27
  -5   9   0  128.60   44.78
  -5   9   0  -18.98   48.65
  -5   9   1   97.36   47.57
  -5   9   1  152.44   38.25
  -5   9   2   66.21   43.78
  -5   9   2   38.63   45.54
  -5   9   3  163.86   48.48
  -5   9   4  141.58   48.88
  -5   9   5  219.42   50.26
  -5   9   5  305.66   46.85
  -5   9   6  272.17   50.59
  -5   9   8  417.26   59.20
  -5   9   9  260.96   60.37
  -5   9  10  175.68   55.68
  -5   9  10  374.42   64.98
  -5  10  -3   40.98   43.99
  -5  10  -3  107.78   59.48
  -5  10  -3  147.54   55.85
  -5  10  -2   83.77   56.68
  -5  10  -2   33.49   46.53
  -5  10  -1  143.13   48.25
  -5  10  -1  138.83   57.00
  -5  10  -1  159.52   52.76
  -5  10   0  297.56   51.51
  -5  10   0  296.88   53.54
  -5  10   0  255.50   57.03
  -5  10   1  511.28   56.45
  -5  10   1  651.17   44.56
  -5  10   1  578.94   59.41
  -5  10   2  566.99   49.89
  -5  10   2  456.47   56.66
  -5  10   3  152.22   51.34
  -5  10   3   28.70   47.58
  -5  10   9   25.11   54.13
  -5  11  -1   29.22   48.23
  -5  11  -1   61.23   59.72
  -5  11  -1  112.11   55.43
  -5  11   0  103.19   59.77
  -5  11   0   80.57   53.34
  -5  11   1  181.77   59.19
  -5  11   1  202.17   55.89
  -5  11   2  307.19   45.06
  -5  11   3   56.48   47.84
  -5  11   4  -34.48   50.87
  -5  11   7   40.42   53.15
  -5  11   8   -2.58   55.16
  -5  12   2   92.32   57.26
  -5  12   2   48.12   48.49
  -5  12   2  189.34   41.62
  -5  12   3   38.79   55.63
  -5  12   3   41.39   50.80
  -5  12   3   11.32   47.90
  -5  12   4  -15.93   53.56
  -4 -13  -8  288.10   62.27
  -4 -13  -8  225.93   27.56
  -4 -13  -7  288.67   62.31
  -4 -13  -7  415.50   43.61
  -4 -13  -7  237.44   38.05
  -4 -12 -11  155.87   67.90
  -4 -12 -11   36.35   59.16
  -4 -12 -10   77.59   64.89
  -4 -12 -10   37.09   57.10
  -4 -12  -9  546.25   67.82
  -4 -12  -9  270.16   60.06
  -4 -12  -8  396.31   63.65
  -4 -12  -8  178.31   57.03
  -4 -12  -7   57.78   54.22
  -4 -12  -7   31.69   31.62
  -4 -12  -6   45.40   54.51
  -4 -12  -6    2.84   39.52
  -4 -12  -5   41.09   44.83
  -4 -12  -4  131.32   57.31
  -4 -12  -4   56.72   50.66
  -4 -12  -3   46.37   55.74
  -4 -12  -3   63.03   55.95
  -4 -11 -12   66.59   57.92
  -4 -11 -11  124.49   56.31
  -4 -11 -11  155.33   65.40
  -4 -11 -10   70.44   54.67
  -4 -11 -10  192.31   60.68
  -4 -11  -9  169.05   54.82
  -4 -11  -9  207.08   58.70
  -4 -11  -8   88.86   53.14
  -4 -11  -8  290.97   56.64
  -4 -11  -7  362.64   54.84
  -4 -11  -7  262.62   28.94
  -4 -11  -6  121.16   35.04
  -4 -11  -6  175.84   51.63
  -4 -11  -5   86.85   40.37
  -4 -11  -5  135.58   49.94
  -4 -11  -4  311.38   47.56
  -4 -11  -3  227.15   53.56
  -4 -11  -3  138.39   53.02
  -4 -11  -2  307.62   55.77
  -4 -11  -2  208.77   58.38
  -4 -11  -1  411.04   55.86
  -4 -11  -1  349.66   64.68
  -4 -10 -13  135.79   59.15
  -4 -10 -13  126.07   40.51
  -4 -10 -12  124.95   56.91
  -4 -10 -12  219.19   43.74
  -4 -10 -11  256.67   56.39
  -4 -10 -10  436.41   60.87
  -4 -10 -10  310.45   54.19
  -4 -10  -9  333.57   48.40
  -4 -10  -9  335.24   53.74
  -4 -10  -8  577.39   51.31
  -4 -10  -8  642.64   56.79
  -4 -10  -7  603.39   52.79
  -4 -10  -7  518.35   46.63
  -4 -10  -6  544.28   51.37
  -4 -10  -6  455.19   34.66
  -4 -10  -5  285.48   41.68
  -4 -10  -5  313.36   47.96
  -4 -10  -5  264.85   37.67
  -4 -10  -4  617.55   45.72
  -4 -10  -4  627.94   51.80
  -4 -10  -4  629.34   48.57
  -4 -10  -3  622.41   56.43
  -4 -10  -3  564.33   52.60
  -4 -10  -2  288.43   50.62
  -4 -10  -2  267.84   53.48
  -4 -10  -1  179.89   49.47
  -4 -10  -1  222.02   61.24
  -4 -10   0  296.59   50.46
  -4 -10   1  285.25   46.75
  -4  -9 -13  309.07   39.78
  -4  -9 -12  326.92   57.71
  -4  -9 -12  302.90   40.06
  -4  -9 -11  178.73   51.11
  -4  -9 -11  195.03   41.19
  -4  -9 -10  200.30   50.65
  -4  -9 -10  197.62   55.00
  -4  -9 -10  175.06   46.05
  -4  -9 -10  148.03   55.67
  -4  -9  -9  160.04   47.43
  -4  -9  -9  153.63   50.90
  -4  -9  -9  175.41   43.82
  -4  -9  -9  210.07   53.44
  -4  -9  -8  590.17   47.84
  -4  -9  -8  653.95   52.12
  -4  -9  -8  737.83   53.79
  -4  -9  -7  475.17   43.78
  -4  -9  -7  432.70   47.55
  -4  -9  -7  550.52   47.40
  -4  -9  -6   59.52   36.87
  -4  -9  -6   89.96   25.83
  -4  -9  -6   94.19   41.73
  -4  -9  -5   52.91   40.20
  -4  -9  -5   40.06   31.46
  -4  -9  -5   49.74   39.83
  -4  -9  -4  122.58   41.76
  -4  -9  -4  101.47   34.23
  -4  -9  -4   89.75   36.55
  -4  -9  -4  110.84   41.78
  -4  -9  -3  178.38   44.77
  -4  -9  -3  130.33   34.65
  -4  -9  -3  110.34   41.53
  -4  -9  -3  136.99   41.97
  -4  -9  -2  147.63   33.52
  -4  -9  -2  124.84   45.58
  -4  -9  -1  112.78   47.44
  -4  -9  -1  103.87   43.98
  -4  -9   0  124.76   44.08
  -4  -9   1   72.78   42.87
  -4  -9   2   72.99   38.81
  -4  -8 -14   93.54   37.19
  -4  -8 -14   86.94   58.21
  -4  -8 -13  147.76   39.31
  -4  -8 -12  103.96   36.19
  -4  -8 -12  129.68   51.03
  -4  -8 -11  118.88   46.01
  -4  -8 -11  110.83   35.13
  -4  -8 -11   63.53   46.55
  -4  -8 -10  131.40   42.22
  -4  -8 -10  158.48   54.06
  -4  -8 -10  128.49   46.15
  -4  -8  -9  136.12   40.37
  -4  -8  -9  154.48   44.09
  -4  -8  -8   33.09   36.49
  -4  -8  -8   86.43   46.72
  -4  -8  -8   67.63   40.81
  -4  -8  -7  123.48   40.82
  -4  -8  -7   92.62   36.67
  -4  -8  -7  106.27   42.07
  -4  -8  -7   42.02   39.96
  -4  -8  -6  138.07   39.23
  -4  -8  -6  125.66   34.23
  -4  -8  -6  217.86   37.65
  -4  -8  -5  421.44   41.37
  -4  -8  -5  398.89   36.49
  -4  -8  -5  437.82   42.23
  -4  -8  -5  425.15   32.40
  -4  -8  -4  402.83   41.55
  -4  -8  -4  396.29   41.19
  -4  -8  -3  500.82   44.86
  -4  -8  -3  544.45   43.41
  -4  -8  -2  337.37   32.78
  -4  -8  -2  420.11   45.26
  -4  -8  -1  221.05   30.80
  -4  -8  -1  268.94   43.69
  -4  -8   0  674.59   51.68
  -4  -8   0  568.52   34.69
  -4  -8   0  559.80   44.97
  -4  -8   1  734.84   55.58
  -4  -8   1  675.84   47.32
  -4  -8   1  694.52   59.93
  -4  -8   2  506.09   43.90
  -4  -8   2  552.84   63.46
  -4  -8   3  723.18   70.06
  -4  -8   4  505.27   70.52
  -4  -7 -14   96.21   39.57
  -4  -7 -14  114.32   55.51
  -4  -7 -13  141.70   37.47
  -4  -7 -13   79.62   54.89
  -4  -7 -12  332.34   51.09
  -4  -7 -12  314.65   38.27
  -4  -7 -11  457.84   49.46
  -4  -7 -11  467.01   38.02
  -4  -7 -11  488.24   50.48
  -4  -7 -10  345.47   43.56
  -4  -7 -10  374.97   36.71
  -4  -7 -10  349.74   45.60
  -4  -7  -9  438.30   42.90
  -4  -7  -9  533.06   54.09
  -4  -7  -9  532.42   46.63
  -4  -7  -8  880.89   51.16
  -4  -7  -8  682.58   44.19
  -4  -7  -8  886.12   51.60
  -4  -7  -8  734.69   47.98
  -4  -7  -7 1350.00   52.89
  -4  -7  -7 1199.60   51.10
  -4  -7  -7 1338.39   55.16
  -4  -7  -7 1283.57   54.59
  -4  -7  -6 1070.02   50.55
  -4  -7  -6 1066.30   46.23
  -4  -7  -6 1066.84   46.48
  -4  -7  -6 1063.18   46.52
  -4  -7  -5  416.31   36.55
  -4  -7  -5  424.53   34.49
  -4  -7  -5  438.20   38.73
  -4  -7  -4  222.57   34.92
  -4  -7  -4  208.81   29.81
  -4  -7  -4  176.29   35.15
  -4  -7  -3 1884.98   62.02
  -4  -7  -3 1842.02   60.84
  -4  -7  -3 1701.90   54.22
  -4  -7  -2 2683.39   77.27
  -4  -7  -2 2592.49   74.42
  -4  -7  -1  895.03   47.52
  -4  -7  -1  870.45   36.69
  -4  -7  -1  767.22   46.25
  -4  -7   0  202.35   26.79
  -4  -7   0  223.67   36.28
  -4  -7   0  227.41   40.26
  -4  -7   0  228.82   45.43
  -4  -7   1  668.32   49.55
  -4  -7   1  652.09   43.26
  -4  -7   1  604.08   31.39
  -4  -7   1  660.06   55.44
  -4  -7   2  586.93   51.52
  -4  -7   2  632.34   42.10
  -4  -7   2  640.65   58.80
  -4  -7   3  460.31   38.31
  -4  -7   3  547.85   62.27
  -4  -7   4  273.77   64.70
  -4  -7   4  347.85   55.11
  -4  -7   5  132.25   65.59
  -4  -6 -14   83.60   38.34
  -4  -6 -14  175.42   53.99
  -4  -6 -13  353.80   42.28
  -4  -6 -13  388.65   53.65
  -4  -6 -12  811.34   56.99
  -4  -6 -12  634.60   42.71
  -4  -6 -11  811.99   53.71
  -4  -6 -11  746.92   44.99
  -4  -6 -11  848.46   54.88
  -4  -6 -10  262.00   40.87
  -4  -6 -10  268.18   33.93
  -4  -6 -10  276.96   43.68
  -4  -6  -9  448.50   41.90
  -4  -6  -9  424.86   42.82
  -4  -6  -8  927.54   46.41
  -4  -6  -8  867.40   50.98
  -4  -6  -8  870.34   48.19
  -4  -6  -7  817.92   44.66
  -4  -6  -7  932.21   47.99
  -4  -6  -7  854.94   44.84
  -4  -6  -7  855.55   43.31
  -4  -6  -6  358.24   34.47
  -4  -6  -6  435.37   33.37
  -4  -6  -6  361.47   38.25
  -4  -6  -6  446.41   34.51
  -4  -6  -6  324.64   36.31
  -4  -6  -5  199.82   31.68
  -4  -6  -5  233.95   30.19
  -4  -6  -5  203.95   30.69
  -4  -6  -5  192.77   32.89
  -4  -6  -4   43.85   30.22
  -4  -6  -4   47.79   29.81
  -4  -6  -4   50.10   26.36
  -4  -6  -3  204.26   27.02
  -4  -6  -3  182.55   31.54
  -4  -6  -3  230.73   31.69
  -4  -6  -3  199.24   29.68
  -4  -6  -2  227.24   33.20
  -4  -6  -2  237.12   31.93
  -4  -6  -2  209.57   31.56
  -4  -6  -1  118.91   33.02
  -4  -6  -1  112.30   33.83
  -4  -6  -1   90.67   28.72
  -4  -6   0   70.31   33.68
  -4  -6   0   33.07   37.44
  -4  -6   1   11.96   36.02
  -4  -6   1    6.04   42.77
  -4  -6   1   32.96   31.50
  -4  -6   2  107.54   39.58
  -4  -6   2  163.73   49.75
  -4  -6   2   86.41   32.64
  -4  -6   3  206.77   43.73
  -4  -6   3  200.91   52.94
  -4  -6   3  187.98   33.70
  -4  -6   4   40.61   55.70
  -4  -6   4   33.38   28.37
  -4  -6   5  117.67   60.97
  -4  -6   5   90.71   48.61
  -4  -6   5  123.62   50.55
  -4  -6   6  138.55   63.69
  -4  -6   6   81.19   52.76
  -4  -5 -14   77.86   36.65
  -4  -5 -14   53.15   49.01
  -4  -5 -13   77.25   39.24
  -4  -5 -13  108.08   49.38
  -4  -5 -12  226.91   41.32
  -4  -5 -12  250.70   48.40
  -4  -5 -11  219.51   43.91
  -4  -5 -11  128.81   35.22
  -4  -5 -10   68.26   38.89
  -4  -5 -10   47.63   32.71
  -4  -5 -10   70.83   39.72
  -4  -5  -9   83.52   34.02
  -4  -5  -9   75.73   36.17
  -4  -5  -8   67.96   31.44
  -4  -5  -8   42.93   27.26
  -4  -5  -8  122.74   35.80
  -4  -5  -7   48.41   39.43
  -4  -5  -7   62.46   31.25
  -4  -5  -7   91.91   29.68
  -4  -5  -7   66.41   29.23
  -4  -5  -6  322.07   35.19
  -4  -5  -6  338.75   29.00
  -4  -5  -6  366.89   37.90
  -4  -5  -6  340.64   34.56
  -4  -5  -6  345.07   31.25
  -4  -5  -5  376.10   30.56
  -4  -5  -5  426.61   31.10
  -4  -5  -5  368.57   33.01
  -4  -5  -5  387.87   31.07
  -4  -5  -5  350.45   29.17
  -4  -5  -4  732.16   36.14
  -4  -5  -4  682.82   36.53
  -4  -5  -3  814.22   37.18
  -4  -5  -3  779.84   36.86
  -4  -5  -3  792.02   33.72
  -4  -5  -2 1611.60   52.55
  -4  -5  -2 1649.49   52.39
  -4  -5  -2 1728.59   52.89
  -4  -5  -1 1241.11   47.84
  -4  -5  -1 1253.21   45.62
  -4  -5  -1 1299.09   49.08
  -4  -5   0  584.56   37.80
  -4  -5   0  626.58   34.24
  -4  -5   0  653.15   43.24
  -4  -5   1  658.79   40.58
  -4  -5   1  589.80   44.45
  -4  -5   2 1244.69   52.54
  -4  -5   2 1259.79   44.16
  -4  -5   2 1216.04   56.80
  -4  -5   3 1870.61   65.80
  -4  -5   3 1818.91   53.55
  -4  -5   3 1821.39   71.16
  -4  -5   4 1044.93   40.93
  -4  -5   4 1123.69   64.61
  -4  -5   5  809.94   62.96
  -4  -5   5  775.56   51.89
  -4  -5   5  806.41   54.39
  -4  -5   6  451.93   64.30
  -4  -5   6  593.66   54.80
  -4  -5   6  386.74   50.44
  -4  -5   6  404.79   52.86
  -4  -5   7  481.94   53.19
  -4  -5   7  513.35   71.07
  -4  -4 -14  102.27   37.92
  -4  -4 -14  123.94   46.50
  -4  -4 -13   95.55   39.96
  -4  -4 -13  158.65   45.28
  -4  -4 -12  326.95   48.81
  -4  -4 -12  258.79   40.32
  -4  -4 -12  248.21   47.55
  -4  -4 -11  530.70   43.01
  -4  -4 -11  486.17   45.71
  -4  -4 -10  571.65   44.33
  -4  -4 -10  539.25   39.98
  -4  -4  -9  284.36   35.70
  -4  -4  -9  282.05   37.29
  -4  -4  -8 1109.79   43.45
  -4  -4  -8 1159.64   47.53
  -4  -4  -8 1198.08   46.97
  -4  -4  -7 1580.70   52.06
  -4  -4  -7 1747.93   54.51
  -4  -4  -7 1685.60   53.84
  -4  -4  -6 3025.00   80.37
  -4  -4  -6 3130.04   79.51
  -4  -4  -6 3148.05   72.42
  -4  -4  -6 2982.36   76.45
  -4  -4  -5 1492.34   48.95
  -4  -4  -5 1522.62   44.28
  -4  -4  -5 1499.65   50.77
  -4  -4  -5 1557.84   50.74
  -4  -4  -4  836.64   36.23
  -4  -4  -4  985.80   40.56
  -4  -4  -4  863.58   34.19
  -4  -4  -4  917.19   34.06
  -4  -4  -3 1150.82   39.41
  -4  -4  -3 1091.89   41.34
  -4  -4  -2 3593.28   85.23
  -4  -4  -2 3381.86   84.87
  -4  -4  -2 3553.83   83.38
  -4  -4  -1 3461.09   85.51
  -4  -4  -1 3415.44   84.05
  -4  -4  -1 3634.53   86.17
  -4  -4   0 1391.19   47.93
  -4  -4   0 1415.92   45.03
  -4  -4   0 1424.57   51.73
  -4  -4   1 1150.93   44.46
  -4  -4   1 1118.10   40.12
  -4  -4   1 1213.19   50.25
  -4  -4   2  585.87   38.55
  -4  -4   2  606.42   45.04
  -4  -4   3  492.52   41.08
  -4  -4   3  434.09   30.63
  -4  -4   3  534.59   47.40
  -4  -4   4  375.72   41.46
  -4  -4   4  338.00   28.36
  -4  -4   4  467.45   49.66
  -4  -4   5  270.61   26.61
  -4  -4   5  394.86   52.79
  -4  -4   5  244.90   27.28
  -4  -4   6  181.23   55.21
  -4  -4   6  123.94   28.54
  -4  -4   6   97.88   44.98
  -4  -4   6  129.22   41.95
  -4  -4   7   36.87   59.62
  -4  -4   7  120.78   30.93
  -4  -4   7  205.00   50.75
  -4  -4   7   62.22   46.67
  -4  -4   7   64.69   43.35
  -4  -4   8  -42.88   63.38
  -4  -4   8  121.45   33.34
  -4  -4   8   46.37   42.72
  -4  -4   8   18.59   49.54
  -4  -3 -13  254.28   43.33
  -4  -3 -13  275.87   41.18
  -4  -3 -12  717.81   49.43
  -4  -3 -12  790.85   46.60
  -4  -3 -12  852.19   55.06
  -4  -3 -11  918.58   48.87
  -4  -3 -11  803.61   48.52
  -4  -3 -10  812.83   46.83
  -4  -3 -10  866.06   48.04
  -4  -3  -9  230.92   34.71
  -4  -3  -9  241.19   34.95
  -4  -3  -8  716.79   37.42
  -4  -3  -8  723.29   38.74
  -4  -3  -8  710.28   40.11
  -4  -3  -7 1406.17   47.48
  -4  -3  -7 1390.71   47.86
  -4  -3  -7 1325.68   47.86
  -4  -3  -6 1170.45   43.32
  -4  -3  -6 1080.52   39.92
  -4  -3  -6 1079.82   31.80
  -4  -3  -5 1170.65   42.65
  -4  -3  -5 1122.27   33.84
  -4  -3  -5 1093.26   38.62
  -4  -3  -4  290.65   29.30
  -4  -3  -4  208.67   21.86
  -4  -3  -4  281.39   28.57
  -4  -3  -4  287.18   26.55
  -4  -3  -4  324.86   23.35
  -4  -3  -4  259.51   26.07
  -4  -3  -3  135.39   20.89
  -4  -3  -3  138.22   27.26
  -4  -3  -3  134.37   19.65
  -4  -3  -3  165.18   23.40
  -4  -3  -3  126.38   23.89
  -4  -3  -2   60.68   23.71
  -4  -3  -2   23.74   24.93
  -4  -3  -1  341.50   27.41
  -4  -3  -1  328.88   25.85
  -4  -3  -1  291.45   29.54
  -4  -3   0    5.50   22.26
  -4  -3   0   17.32   30.44
  -4  -3   0   -3.47   25.11
  -4  -3   1   48.51   22.13
  -4  -3   1   25.09   33.87
  -4  -3   1   57.13   27.48
  -4  -3   2   23.51   22.49
  -4  -3   2   29.67   35.53
  -4  -3   2   57.18   28.72
  -4  -3   3  144.58   22.46
  -4  -3   3  274.20   34.09
  -4  -3   3  252.38   39.55
  -4  -3   4  626.56   41.58
  -4  -3   4  515.11   29.42
  -4  -3   4  566.73   30.70
  -4  -3   4  606.85   47.05
  -4  -3   5  419.46   27.65
  -4  -3   5  586.28   32.65
  -4  -3   5  585.55   51.42
  -4  -3   5  495.33   43.79
  -4  -3   6  188.66   43.65
  -4  -3   6  176.09   39.66
  -4  -3   6  171.98   22.47
  -4  -3   6  277.00   32.09
  -4  -3   6  251.04   41.99
  -4  -3   6  252.84   37.92
  -4  -3   6  274.28   52.65
  -4  -3   7  128.15   57.48
  -4  -3   7   80.20   34.92
  -4  -3   7  148.39   42.57
  -4  -3   7   82.58   46.17
  -4  -3   7  145.48   43.11
  -4  -3   7   97.74   25.51
  -4  -3   7  139.02   39.05
  -4  -3   8  215.62   39.66
  -4  -3   8  282.65   49.17
  -4  -3   8  309.07   42.05
  -4  -3   8  356.68   48.60
  -4  -3   8  225.02   53.40
  -4  -3   8  274.07   64.21
  -4  -2 -13  147.63   41.21
  -4  -2 -12  177.95   40.37
  -4  -2 -12  100.91   37.75
  -4  -2 -11   58.93   40.69
  -4  -2 -11  150.16   38.03
  -4  -2 -11  123.00   37.56
  -4  -2 -10   86.03   37.61
  -4  -2 -10   43.59   36.59
  -4  -2  -9   43.44   30.85
  -4  -2  -8   13.00   28.31
  -4  -2  -8   -5.89   29.81
  -4  -2  -8   10.04   28.25
  -4  -2  -7  -20.22   27.57
  -4  -2  -7    4.63   28.69
  -4  -2  -6  531.21   20.02
  -4  -2  -6  616.51   33.34
  -4  -2  -6  582.34   33.30
  -4  -2  -5  836.87   34.63
  -4  -2  -5  839.04   35.24
  -4  -2  -4  394.26   26.73
  -4  -2  -4  461.47   27.48
  -4  -2  -3   46.86   24.29
  -4  -2  -3   25.76   25.07
  -4  -2  -3   66.12   18.71
  -4  -2  -2  201.80   24.25
  -4  -2  -2  201.67   21.89
  -4  -2  -2  197.42   19.28
  -4  -2  -1 5855.70  128.17
  -4  -2   0 5049.21  110.86
  -4  -2   0 4947.63  113.39
  -4  -2   1 1267.51   38.26
  -4  -2   1 1303.46   47.00
  -4  -2   1 1109.71   34.28
  -4  -2   2  381.48   25.26
  -4  -2   2  329.32   23.87
  -4  -2   2  276.15   23.56
  -4  -2   3 1624.10   49.01
  -4  -2   3 1764.40   58.01
  -4  -2   4 2118.97   62.97
  -4  -2   4 2102.16   68.49
  -4  -2   5 1211.00   50.90
  -4  -2   5 1131.55   38.74
  -4  -2   5 1322.07   43.73
  -4  -2   5 1262.62   59.10
  -4  -2   6  600.15   29.31
  -4  -2   6  862.17   55.55
  -4  -2   6  834.41   40.03
  -4  -2   6  684.01   47.92
  -4  -2   7  414.43   45.46
  -4  -2   7  278.93   23.49
  -4  -2   7  494.81   57.08
  -4  -2   7  578.79   41.41
  -4  -2   7  391.32   37.17
  -4  -2   7  438.18   44.08
  -4  -2   7  351.93   47.53
  -4  -2   8  297.49   32.67
  -4  -2   8  342.97   45.39
  -4  -2   8  338.80   37.87
  -4  -2   8  501.43   44.10
  -4  -2   8  405.77   63.33
  -4  -2   8  290.22   51.32
  -4  -2   8  412.92   49.22
  -4  -2   9  315.01   68.58
  -4  -2   9  173.95   48.37
  -4  -2   9  295.57   45.55
  -4  -2   9  182.54   47.70
  -4  -2   9  169.18   37.49
  -4  -1 -13   41.83   41.73
  -4  -1 -12  213.34   43.25
  -4  -1 -12  112.28   32.60
  -4  -1 -11  385.39   42.78
  -4  -1 -11  343.81   42.45
  -4  -1 -11  302.71   36.43
  -4  -1 -10 1235.94   52.60
  -4  -1 -10 1132.78   51.74
  -4  -1 -10 1041.89   46.88
  -4  -1  -9 1491.74   51.01
  -4  -1  -8  535.95   36.87
  -4  -1  -8  506.89   34.18
  -4  -1  -7 1258.21   46.33
  -4  -1  -7 1120.91   41.37
  -4  -1  -6 1945.31   57.04
  -4  -1  -6 1890.94   52.92
  -4  -1  -5 3696.41   81.43
  -4  -1  -5 3862.71   89.73
  -4  -1  -5 3881.37   88.12
  -4  -1  -4 1786.77   46.73
  -4  -1  -4 1896.05   52.85
  -4  -1  -4 1944.03   51.59
  -4  -1  -3 2490.55   61.15
  -4  -1  -3 2469.09   59.01
  -4  -1  -3 2407.80   62.58
  -4  -1  -3 2563.29   62.03
  -4  -1  -2  384.55   26.34
  -4  -1  -2  362.95   25.06
  -4  -1  -2  380.02   26.21
  -4  -1  -1 3208.61   79.06
  -4  -1  -1 3557.24   79.60
  -4  -1  -1 3518.33   79.65
  -4  -1   0 3983.63   89.25
  -4  -1   0 3871.49   89.71
  -4  -1   1  896.89   37.47
  -4  -1   1  937.10   32.86
  -4  -1   1  849.78   39.21
  -4  -1   2  708.80   29.32
  -4  -1   2  732.93   26.51
  -4  -1   2  868.59   37.60
  -4  -1   2  785.92   28.19
  -4  -1   3  707.29   29.66
  -4  -1   3  768.67   32.31
  -4  -1   3  836.61   32.82
  -4  -1   3  740.44   39.28
  -4  -1   4  406.29   37.00
  -4  -1   5  221.16   40.04
  -4  -1   6  369.00   46.96
  -4  -1   6  389.01   36.17
  -4  -1   6  331.32   39.94
  -4  -1   7  116.34   50.16
  -4  -1   7  135.73   39.32
  -4  -1   7   19.38   40.76
  -4  -1   7  186.63   37.20
  -4  -1   7  113.10   37.00
  -4  -1   7  101.21   29.14
  -4  -1   8   66.57   57.61
  -4  -1   8  143.34   43.20
  -4  -1   8   42.04   44.33
  -4  -1   8   22.58   24.84
  -4  -1   8   94.21   38.82
  -4  -1   8  102.02   29.08
  -4  -1   9   69.38   61.77
  -4  -1   9   38.96   45.64
  -4  -1   9   -4.20   47.32
  -4  -1   9   35.40   15.86
  -4  -1   9  193.01   45.56
  -4  -1   9   48.91   32.88
  -4  -1   9   55.52   40.78
  -4  -1   9   27.01   26.25
  -4  -1  10   72.08   67.35
  -4  -1  10  -26.17   50.75
  -4  -1  10  171.77   47.68
  -4  -1  10   30.74   22.39
  -4  -1  10   23.39   22.28
  -4  -1  10   64.52   43.05
  -4  -1  10   56.44   34.01
  -4   0 -12  339.20   46.97
  -4   0 -11  789.47   49.37
  -4   0 -11  535.45   34.35
  -4   0 -10 1109.73   51.90
  -4   0 -10 1080.10   48.17
  -4   0 -10  935.22   41.16
  -4   0  -9 1512.37   52.74
  -4   0  -9 1408.86   48.09
  -4   0  -8  312.60   29.33
  -4   0  -7  995.79   44.59
  -4   0  -7  755.54   21.56
  -4   0  -7 1035.53   42.08
  -4   0  -6 1128.12   45.43
  -4   0  -6 1118.66   44.27
  -4   0  -6 1106.33   38.57
  -4   0  -5  594.11   34.53
  -4   0  -5  593.73   34.84
  -4   0  -5  564.10   29.95
  -4   0  -4  297.98   26.67
  -4   0  -4  326.29   27.98
  -4   0  -4  330.25   24.76
  -4   0  -3  253.81   25.15
  -4   0  -3  235.18   21.56
  -4   0  -2  169.92   26.11
  -4   0  -1  147.54   23.76
  -4   0   0  461.83   23.55
  -4   0   0  443.09   27.21
  -4   0   0  381.52   27.99
  -4   0   1  140.64   23.38
  -4   0   2   41.09   16.20
  -4   0   2   64.93   26.89
  -4   0   2   66.83   19.77
  -4   0   3  187.25   29.69
  -4   0   4  348.02   34.83
  -4   0   5  633.90   42.09
  -4   0   5  536.65   27.91
  -4   0   5  556.95   34.40
  -4   0   6   64.80   22.17
  -4   0   6   88.72   41.67
  -4   0   7  204.64   38.53
  -4   0   7  247.02   40.11
  -4   0   7  212.36   51.76
  -4   0   7  128.46   22.96
  -4   0   7  155.46   23.47
  -4   0   8  298.04   55.53
  -4   0   8  331.30   44.78
  -4   0   8  271.63   42.53
  -4   0   8  271.90   30.55
  -4   0   8  402.40   43.77
  -4   0   8  186.74   22.40
  -4   0   8  241.06   23.65
  -4   0   9  173.47   59.61
  -4   0   9  202.66   45.42
  -4   0   9  216.72   48.04
  -4   0   9   59.08   29.78
  -4   0   9  275.01   46.22
  -4   0   9  209.84   40.28
  -4   0   9  220.81   37.20
  -4   0   9   74.93   13.12
  -4   0  10  237.81   50.94
  -4   0  10   75.41   27.35
  -4   0  10  211.31   39.61
  -4   0  10  188.67   42.25
  -4   0  10  387.30   50.98
  -4   0  10  321.78   72.17
  -4   1 -11   63.93   45.87
  -4   1 -10   45.70   48.52
  -4   1 -10   26.80   32.27
  -4   1 -10   30.23   43.70
  -4   1 -10   43.40   25.03
  -4   1  -9   50.71   29.72
  -4   1  -9   67.01   43.61
  -4   1  -9   49.63   28.13
  -4   1  -8   98.98   29.29
  -4   1  -8   74.21   39.01
  -4   1  -8   73.61   27.72
  -4   1  -7   74.44   33.48
  -4   1  -7   32.18   18.35
  -4   1  -7   32.72   31.28
  -4   1  -6   19.17   24.25
  -4   1  -6   76.46   32.32
  -4   1  -6   73.56   30.83
  -4   1  -5 1966.50   52.18
  -4   1  -5 2111.82   60.03
  -4   1  -5 1996.71   59.35
  -4   1  -4 2380.91   63.85
  -4   1  -4 2371.61   64.85
  -4   1  -3  677.62   31.22
  -4   1  -1  970.41   29.45
  -4   1  -1 1257.56   37.21
  -4   1   0 2178.55   48.91
  -4   1   0 1701.53   40.45
  -4   1   0 2088.89   50.08
  -4   1   1 2662.24   61.56
  -4   1   1 2353.19   60.83
  -4   1   2 1155.30   34.98
  -4   1   2  948.99   27.64
  -4   1   2 1087.28   34.73
  -4   1   3  493.67   27.55
  -4   1   3  447.35   26.75
  -4   1   3  429.36   23.00
  -4   1   3  457.74   26.13
  -4   1   3  441.74   24.63
  -4   1   4  725.49   33.22
  -4   1   4  807.82   42.10
  -4   1   4  642.17   30.50
  -4   1   4  730.71   35.80
  -4   1   5 1254.61   47.69
  -4   1   5 1228.63   44.57
  -4   1   5 1203.10   53.25
  -4   1   6  506.18   24.24
  -4   1   6  609.80   38.26
  -4   1   6  664.80   48.33
  -4   1   7  349.59   47.61
  -4   1   7  160.04   16.77
  -4   1   7  304.87   38.49
  -4   1   8  431.30   33.97
  -4   1   8  502.74   47.37
  -4   1   8  654.63   55.75
  -4   1   8  594.83   46.03
  -4   1   9  353.67   47.97
  -4   1   9  221.45   44.55
  -4   1   9  328.34   38.29
  -4   1   9  336.88   62.91
  -4   1   9  315.36   58.14
  -4   1  10  216.95   49.47
  -4   1  10  211.81   33.22
  -4   1  10  122.82   39.15
  -4   1  10  184.79   38.96
  -4   1  10  102.87   47.28
  -4   2 -11  191.93   56.73
  -4   2 -10  753.80   53.41
  -4   2 -10  796.89   62.26
  -4   2  -9 1064.10   55.16
  -4   2  -9  947.54   39.95
  -4   2  -9  727.04   32.87
  -4   2  -9 1030.40   60.71
  -4   2  -8  752.95   32.72
  -4   2  -8  729.35   34.36
  -4   2  -8  804.05   36.34
  -4   2  -8  864.58   52.77
  -4   2  -7  457.72   28.30
  -4   2  -7  433.17   40.71
  -4   2  -7  343.09   27.56
  -4   2  -7  471.88   41.69
  -4   2  -6  687.44   41.60
  -4   2  -6  691.53   41.76
  -4   2  -5 2278.29   66.02
  -4   2  -5 2208.80   66.41
  -4   2  -4 3469.62   88.58
  -4   2  -4 3554.49   88.42
  -4   2  -3 1133.98   41.96
  -4   2  -2 2316.65   59.67
  -4   2  -1 2339.70   56.49
  -4   2  -1 2402.69   56.77
  -4   2  -1 2403.74   61.18
  -4   2   0  893.59   26.62
  -4   2   0  937.48   28.52
  -4   2   0  971.62   36.49
  -4   2   0 1102.43   34.24
  -4   2   1  613.38   29.26
  -4   2   1  559.72   28.15
  -4   2   2  737.31   32.48
  -4   2   2  808.83   30.87
  -4   2   2  735.52   30.74
  -4   2   3  810.64   39.18
  -4   2   3  851.98   32.18
  -4   2   3  818.03   34.25
  -4   2   4  722.80   34.09
  -4   2   4  652.71   30.51
  -4   2   5  320.88   32.06
  -4   2   6   83.39   33.59
  -4   2   6  200.98   39.39
  -4   2   7  275.76   38.99
  -4   2   7  310.77   45.92
  -4   2   8  302.03   40.32
  -4   2   8  154.77   33.05
  -4   2   8  257.65   45.22
  -4   2   8  251.73   50.37
  -4   2   9   73.75   33.65
  -4   2   9   11.17   43.15
  -4   2   9  135.89   43.35
  -4   2   9   75.17   57.23
  -4   2   9  158.35   43.50
  -4   2  10   31.42   61.34
  -4   2  10   86.46   46.54
  -4   2  10   13.76   32.16
  -4   2  10    1.90   47.42
  -4   2  10   48.97   36.24
  -4   2  10  113.68   63.33
  -4   2  11   37.01   38.55
  -4   2  11   43.20   34.93
  -4   3 -11  433.57   63.69
  -4   3 -10  443.69   58.92
  -4   3  -9  411.17   49.56
  -4   3  -9  363.31   52.25
  -4   3  -8  540.33   34.71
  -4   3  -8  668.09   52.43
  -4   3  -8  510.54   31.22
  -4   3  -8  477.94   28.47
  -4   3  -7  733.77   49.68
  -4   3  -7  726.17   37.26
  -4   3  -7  637.70   49.15
  -4   3  -7  583.51   30.33
  -4   3  -6  921.52   48.62
  -4   3  -6  916.99   38.84
  -4   3  -6  880.95   48.22
  -4   3  -5  287.11   36.64
  -4   3  -5  287.83   36.47
  -4   3  -4  331.28   33.98
  -4   3  -4  324.77   35.60
  -4   3  -3  354.30   31.19
  -4   3  -2  492.02   29.37
  -4   3  -2  552.55   31.72
  -4   3  -1  540.11   29.31
  -4   3  -1  585.68   27.06
  -4   3  -1  601.15   28.08
  -4   3   0   95.66   20.93
  -4   3   0   64.59   26.62
  -4   3   0   72.72   23.04
  -4   3   1   35.90   23.20
  -4   3   1   84.31   26.43
  -4   3   1   44.50   27.52
  -4   3   2   23.60   22.23
  -4   3   2   40.09   23.95
  -4   3   2   56.35   29.59
  -4   3   3   46.52   24.35
  -4   3   3   38.75   24.33
  -4   3   3   50.81   29.09
  -4   3   4   39.58   27.25
  -4   3   4   22.66   22.38
  -4   3   5   56.72   28.26
  -4   3   6  216.60   35.46
  -4   3   7   -1.10   35.47
  -4   3   8   57.17   33.81
  -4   3   8   35.32   39.85
  -4   3   8   79.11   41.16
  -4   3   8   13.86   38.55
  -4   3   9   91.90   44.54
  -4   3   9  128.59   35.94
  -4   3   9  118.35   54.23
  -4   3   9   71.13   42.76
  -4   3  10    9.33   37.04
  -4   3  10   36.19   56.20
  -4   3  10  119.97   47.96
  -4   3  10  109.44   58.82
  -4   3  10  100.78   39.09
  -4   3  10   57.84   45.42
  -4   3  11   19.78   37.99
  -4   3  11   69.11   61.69
  -4   3  11  107.30   42.18
  -4   4 -10  108.20   56.13
  -4   4  -9   95.42   51.92
  -4   4  -8   73.62   22.57
  -4   4  -8   93.76   37.39
  -4   4  -8   26.89   19.55
  -4   4  -7   91.72   23.80
  -4   4  -7  132.37   35.66
  -4   4  -7  193.85   46.33
  -4   4  -7  180.59   45.00
  -4   4  -6  189.29   33.77
  -4   4  -6  142.89   42.62
  -4   4  -6  147.35   40.51
  -4   4  -5  104.78   40.23
  -4   4  -5  120.96   36.83
  -4   4  -4  523.95   38.62
  -4   4  -4  519.17   41.97
  -4   4  -3  793.41   41.91
  -4   4  -3  943.57   45.76
  -4   4  -2  242.59   27.74
  -4   4  -2  222.15   29.00
  -4   4  -1  220.34   25.85
  -4   4  -1  185.86   27.71
  -4   4  -1  274.83   24.05
  -4   4   0  243.13   26.24
  -4   4   0  219.31   27.38
  -4   4   0  195.26   32.01
  -4   4   1  548.67   31.28
  -4   4   1  675.11   38.57
  -4   4   1  575.49   35.87
  -4   4   2  627.27   30.56
  -4   4   2  596.14   40.15
  -4   4   2  666.32   37.11
  -4   4   3  286.75   29.33
  -4   4   3  352.12   34.92
  -4   4   3  282.88   30.29
  -4   4   4  501.80   33.06
  -4   4   4  501.29   37.89
  -4   4   4  437.69   31.92
  -4   4   5  701.65   38.64
  -4   4   5  719.71   41.67
  -4   4   6  422.32   38.12
  -4   4   6  458.99   41.01
  -4   4   7  241.76   38.71
  -4   4   8  348.07   40.10
  -4   4   8  394.22   45.62
  -4   4   8  436.34   45.37
  -4   4   9  405.93   44.67
  -4   4   9  615.58   50.46
  -4   4   9  539.45   53.32
  -4   4   9  426.01   50.35
  -4   4  10  232.58   43.81
  -4   4  10  236.97   48.35
  -4   4  10  123.57   54.59
  -4   4  10  259.66   49.14
  -4   4  10  180.69   42.16
  -4   4  11   55.10   51.02
  -4   4  11   92.89   43.66
  -4   4  11   68.06   46.57
  -4   4  11   83.18   56.90
  -4   4  11    1.00   41.37
  -4   5  -9  499.78   61.75
  -4   5  -8  435.01   45.32
  -4   5  -8  493.75   58.54
  -4   5  -7  604.63   46.33
  -4   5  -7  543.04   54.07
  -4   5  -7  271.74   25.71
  -4   5  -7  322.33   26.89
  -4   5  -6  492.03   49.76
  -4   5  -6  596.42   44.93
  -4   5  -6  550.22   51.22
  -4   5  -5  570.06   46.92
  -4   5  -5  651.29   51.03
  -4   5  -4  338.08   39.80
  -4   5  -4  408.91   37.39
  -4   5  -4  420.28   45.34
  -4   5  -3  684.31   41.41
  -4   5  -3  650.77   42.13
  -4   5  -3  703.28   46.97
  -4   5  -2  452.33   34.52
  -4   5  -2  408.05   34.76
  -4   5  -2  410.23   37.28
  -4   5  -1 1025.39   42.37
  -4   5  -1  979.58   42.57
  -4   5  -1 1061.52   45.03
  -4   5   0 1240.94   41.90
  -4   5   0 1273.47   46.68
  -4   5   0 1342.83   52.35
  -4   5   1  365.68   30.67
  -4   5   1  391.16   38.18
  -4   5   2  446.14   30.93
  -4   5   2  395.35   39.30
  -4   5   3  560.76   34.76
  -4   5   3  650.66   43.12
  -4   5   3  533.34   37.89
  -4   5   4  649.57   37.39
  -4   5   4  645.77   44.82
  -4   5   4  638.15   36.46
  -4   5   5  408.67   37.23
  -4   5   5  563.67   40.48
  -4   5   6  348.12   38.87
  -4   5   6  284.67   37.66
  -4   5   6  354.64   39.86
  -4   5   7  184.23   37.55
  -4   5   7   73.44   39.41
  -4   5   8  335.09   45.20
  -4   5   9  257.88   44.22
  -4   5   9  191.52   47.36
  -4   5   9  217.48   45.78
  -4   5  10   56.29   47.10
  -4   5  10  129.92   44.18
  -4   5  11   70.86   45.89
  -4   5  11  -14.55   46.27
  -4   5  11   26.06   50.35
  -4   5  11   -1.85   42.45
  -4   6  -8  234.58   50.49
  -4   6  -8  295.40   59.46
  -4   6  -7  407.75   49.12
  -4   6  -7  515.09   58.41
  -4   6  -6  428.08   46.08
  -4   6  -6  402.62   52.91
  -4   6  -6  239.46   29.85
  -4   6  -5  693.37   47.52
  -4   6  -5  592.07   52.18
  -4   6  -5  455.76   34.37
  -4   6  -4  303.88   44.78
  -4   6  -4  304.17   48.72
  -4   6  -3  280.58   40.48
  -4   6  -3  235.08   38.48
  -4   6  -2  182.05   34.01
  -4   6  -2  203.08   37.51
  -4   6  -2  201.09   39.07
  -4   6  -1  529.90   38.36
  -4   6  -1  579.73   42.35
  -4   6  -1  490.91   41.00
  -4   6   0  819.81   39.10
  -4   6   0  893.09   41.64
  -4   6   0  893.23   48.59
  -4   6   0  826.31   42.91
  -4   6   1  124.22   30.28
  -4   6   1   87.67   38.01
  -4   6   1    7.74   30.71
  -4   6   2  130.08   35.91
  -4   6   2  106.12   29.35
  -4   6   3   26.00   35.24
  -4   6   3   95.23   30.68
  -4   6   4  274.36   34.27
  -4   6   4  200.82   35.05
  -4   6   4  333.25   43.30
  -4   6   5  100.96   35.69
  -4   6   5   48.70   33.78
  -4   6   5   66.27   42.26
  -4   6   6   69.63   37.15
  -4   6   6    6.16   36.17
  -4   6   7  119.60   39.52
  -4   6   7   39.84   39.61
  -4   6   8   18.66   42.55
  -4   6   9   82.08   42.79
  -4   6   9   -7.74   45.39
  -4   6   9  -26.27   45.57
  -4   6  10  130.55   45.81
  -4   6  10   80.71   48.78
  -4   6  10  116.35   46.06
  -4   6  10  -12.29   49.24
  -4   6  11   78.62   45.18
  -4   6  11   68.60   51.85
  -4   6  11  -25.08   55.95
  -4   7  -7  104.84   50.85
  -4   7  -7   11.64   20.11
  -4   7  -7  103.17   56.74
  -4   7  -6  200.01   50.10
  -4   7  -6   43.01   30.03
  -4   7  -6  144.77   54.14
  -4   7  -5  209.26   47.20
  -4   7  -5   67.40   32.69
  -4   7  -5  203.63   50.63
  -4   7  -4   32.72   33.02
  -4   7  -4   91.53   45.22
  -4   7  -3  393.73   38.94
  -4   7  -3  462.70   47.74
  -4   7  -3  615.68   47.56
  -4   7  -3  459.94   48.33
  -4   7  -2  332.22   43.78
  -4   7  -2  387.31   37.48
  -4   7  -2  299.53   41.90
  -4   7  -1   55.36   38.22
  -4   7  -1   71.31   33.95
  -4   7  -1   18.54   37.32
  -4   7   0  183.55   36.84
  -4   7   0  158.20   37.89
  -4   7   0  145.53   33.30
  -4   7   0  134.29   38.49
  -4   7   1  387.19   40.82
  -4   7   1  271.80   35.03
  -4   7   1  308.56   42.56
  -4   7   1  395.60   39.19
  -4   7   2  159.32   37.46
  -4   7   2  148.80   31.59
  -4   7   2  137.20   39.46
  -4   7   3  160.67   38.33
  -4   7   3  203.47   34.20
  -4   7   4  457.40   41.94
  -4   7   4  446.27   39.09
  -4   7   5  357.50   40.37
  -4   7   5  314.87   40.31
  -4   7   6  363.09   45.78
  -4   7   6  355.77   43.03
  -4   7   7  165.69   44.49
  -4   7   7  130.13   42.68
  -4   7   8  191.47   45.47
  -4   7   8  119.97   45.43
  -4   7   9  553.83   53.43
  -4   7  10  384.22   52.08
  -4   7  10  308.92   50.81
  -4   7  11  218.43   52.13
  -4   7  11  354.63   55.03
  -4   8  -6  149.86   53.88
  -4   8  -6  159.60   58.68
  -4   8  -6   80.99   30.80
  -4   8  -5  431.35   54.66
  -4   8  -5  402.28   59.23
  -4   8  -5  247.62   36.27
  -4   8  -4  260.65   48.49
  -4   8  -4  265.92   54.24
  -4   8  -4  144.77   36.35
  -4   8  -3   99.40   46.53
  -4   8  -3  104.94   48.67
  -4   8  -3   60.24   36.63
  -4   8  -2  375.51   47.64
  -4   8  -2  373.67   46.88
  -4   8  -2  358.46   48.76
  -4   8  -2  244.27   40.63
  -4   8  -1  293.15   40.77
  -4   8  -1  316.69   47.72
  -4   8  -1  365.63   43.41
  -4   8   0  576.40   35.76
  -4   8   0  502.11   48.31
  -4   8   0  552.34   43.86
  -4   8   1  582.28   46.50
  -4   8   1  702.64   48.44
  -4   8   2  285.30   42.57
  -4   8   3  201.28   43.26
  -4   8   3  170.10   37.04
  -4   8   4  645.60   50.83
  -4   8   4  712.36   45.68
  -4   8   5  519.69   49.83
  -4   8   5  517.23   46.32
  -4   8   6  191.89   45.67
  -4   8   6  276.74   45.39
  -4   8   7  254.40   48.34
  -4   8   7  264.53   47.99
  -4   8   7  403.34   51.52
  -4   8   8   53.30   47.37
  -4   8   8   -8.40   47.74
  -4   8   8  149.04   52.25
  -4   8   9  101.80   46.33
  -4   8   9   -9.16   55.71
  -4   8   9  127.55   49.64
  -4   8  10   71.71   49.06
  -4   8  10  236.11   55.20
  -4   8  11   71.50   51.35
  -4   8  11  413.39   56.61
  -4   9  -5  370.54   63.71
  -4   9  -5  328.61   58.39
  -4   9  -4  268.44   40.22
  -4   9  -4  391.31   60.14
  -4   9  -4  340.20   56.23
  -4   9  -3  180.69   54.82
  -4   9  -3   81.34   39.92
  -4   9  -2  114.24   41.19
  -4   9  -2   91.09   50.88
  -4   9  -2  194.40   48.62
  -4   9  -1  174.99   43.74
  -4   9  -1  144.25   50.56
  -4   9  -1  141.39   45.44
  -4   9  -1  200.22   47.83
  -4   9   0  259.73   44.68
  -4   9   0  270.52   45.15
  -4   9   0  201.29   49.82
  -4   9   0  303.23   47.95
  -4   9   1  271.04   46.45
  -4   9   1  346.82   43.80
  -4   9   1  367.00   38.06
  -4   9   2  154.39   44.34
  -4   9   2   30.74   39.83
  -4   9   2  127.22   43.59
  -4   9   3   85.54   44.01
  -4   9   4  103.52   46.13
  -4   9   5  119.23   46.13
  -4   9   5  126.30   45.34
  -4   9   6   36.76   46.42
  -4   9   6   29.84   45.43
  -4   9   7   15.79   47.54
  -4   9   7   66.77   47.80
  -4   9   8   73.86   44.56
  -4   9   8  443.05   51.72
  -4   9   9   70.86   48.55
  -4   9   9  318.28   55.30
  -4   9  10   38.54   50.12
  -4   9  10  125.07   58.46
  -4   9  11  127.14   55.30
  -4   9  11   53.70   59.71
  -4  10  -3   80.40   41.78
  -4  10  -3   24.06   59.23
  -4  10  -3   39.94   53.28
  -4  10  -3   24.37   26.56
  -4  10  -2   48.75   43.12
  -4  10  -2  -12.06   54.02
  -4  10  -2   14.20   32.16
  -4  10  -1   56.89   43.79
  -4  10  -1    8.99   53.66
  -4  10  -1   66.52   48.63
  -4  10   0   48.82   45.87
  -4  10   0   53.77   47.22
  -4  10   0   35.17   52.37
  -4  10   1  -36.77   48.84
  -4  10   1  111.41   35.58
  -4  10   1   41.08   48.86
  -4  10   1   65.44   43.86
  -4  10   1   39.89   45.06
  -4  10   2  270.35   51.02
  -4  10   2  144.94   42.15
  -4  10   3  139.91   50.26
  -4  10   3   42.27   44.71
  -4  10   3  195.71   48.03
  -4  10   4  116.32   51.18
  -4  10   4  211.62   44.71
  -4  10   5  177.03   53.13
  -4  10   7  278.08   53.06
  -4  10   7  340.22   55.19
  -4  10   8  173.51   51.42
  -4  10   9  124.69   52.96
  -4  10  10  128.01   54.24
  -4  11  -1  106.06   47.63
  -4  11  -1  108.64   61.30
  -4  11  -1   58.09   36.00
  -4  11  -1  151.79   54.50
  -4  11   0  206.51   49.84
  -4  11   0  155.62   60.08
  -4  11   0  170.41   39.98
  -4  11   0  290.52   56.04
  -4  11   1  275.32   53.50
  -4  11   1  395.16   56.19
  -4  11   1  267.70   44.80
  -4  11   1  323.20   59.69
  -4  11   2  264.65   54.30
  -4  11   2  352.00   54.44
  -4  11   2  302.76   46.98
  -4  11   2  398.93   57.44
  -4  11   2  395.67   43.48
  -4  11   3  183.38   50.06
  -4  11   3  163.68   46.51
  -4  11   3  176.79   53.04
  -4  11   3  103.71   46.43
  -4  11   4   94.86   47.26
  -4  11   5  505.89   53.94
  -4  11   6  388.56   57.23
  -4  11   6  720.49   60.01
  -4  11   7  250.55   55.34
  -4  11   8   46.77   53.50
  -4  11   9   84.34   54.23
  -4  12   1  158.94   44.52
  -4  12   1  191.28   58.85
  -4  12   1  126.41   63.02
  -4  12   2  137.54   46.32
  -4  12   2  221.00   58.24
  -4  12   2  185.15   60.25
  -4  12   2  233.11   39.31
  -4  12   3  152.14   54.75
  -4  12   3   91.88   47.76
  -4  12   3   65.99   55.80
  -4  12   3   60.05   44.21
  -4  12   4  -39.29   49.83
  -4  12   4   84.09   53.82
  -4  12   4   45.85   53.08
  -4  12   4   25.14   49.29
  -4  12   5   55.66   54.65
  -4  12   5   88.89   53.11
  -4  12   5  108.40   50.76
  -4  12   7   16.48   54.71
  -4  12   8   35.48   56.49
  -3 -13  -9   58.64   58.81
  -3 -13  -9  184.52   64.66
  -3 -13  -8   79.89   27.71
  -3 -13  -8   47.51   26.43
  -3 -13  -8  134.24   59.05
  -3 -13  -8  191.87   60.11
  -3 -13  -7  178.65   36.77
  -3 -13  -7  270.19   46.12
  -3 -13  -7  273.75   61.81
  -3 -13  -6  203.60   45.69
  -3 -13  -5   58.58   50.81
  -3 -13  -5   85.35   58.55
  -3 -12 -11  219.12   59.69
  -3 -12 -11  425.71   67.93
  -3 -12 -10  243.62   58.50
  -3 -12 -10  457.14   64.65
  -3 -12  -9  226.35   57.68
  -3 -12  -9  479.06   62.18
  -3 -12  -8  196.04   22.43
  -3 -12  -8  296.68   56.41
  -3 -12  -7  201.71   32.85
  -3 -12  -7  269.93   40.12
  -3 -12  -7  271.42   56.14
  -3 -12  -6  247.36   41.36
  -3 -12  -6  332.57   57.42
  -3 -12  -5  258.93   47.10
  -3 -12  -4  223.75   55.14
  -3 -12  -4  263.29   56.49
  -3 -12  -3  209.91   59.13
  -3 -12  -3  253.71   57.16
  -3 -12  -2  120.38   62.02
  -3 -12  -2  152.08   55.61
  -3 -11 -12  176.63   57.91
  -3 -11 -11  153.48   55.38
  -3 -11 -11  311.46   63.48
  -3 -11 -10  219.76   54.38
  -3 -11 -10  376.24   60.20
  -3 -11  -9  296.88   55.58
  -3 -11  -9  609.16   59.88
  -3 -11  -8  275.21   53.79
  -3 -11  -8  371.62   54.91
  -3 -11  -7   47.37   48.33
  -3 -11  -7  -17.96   32.71
  -3 -11  -7   29.79   26.75
  -3 -11  -6   33.25   49.58
  -3 -11  -6   26.88   35.23
  -3 -11  -5   61.20   47.05
  -3 -11  -5  102.01   42.40
  -3 -11  -3  159.30   51.39
  -3 -11  -2   82.74   50.61
  -3 -11  -1  137.66   49.83
  -3 -11  -1  126.01   59.93
  -3 -11   0  142.98   67.84
  -3 -10 -13   96.17   58.32
  -3 -10 -13   68.68   36.59
  -3 -10 -12   53.48   54.45
  -3 -10 -12   90.36   38.15
  -3 -10 -11  101.43   52.61
  -3 -10 -11  286.76   60.42
  -3 -10 -10  114.11   51.43
  -3 -10 -10  383.48   56.41
  -3 -10  -9  114.27   51.11
  -3 -10  -9   53.31   49.17
  -3 -10  -9  167.24   50.95
  -3 -10  -8  146.81   48.99
  -3 -10  -8  107.30   48.75
  -3 -10  -8  239.80   48.88
  -3 -10  -7   78.67   46.42
  -3 -10  -7   45.67   23.40
  -3 -10  -6  183.30   46.08
  -3 -10  -6  104.08   30.30
  -3 -10  -5   91.70   45.87
  -3 -10  -5  128.20   35.93
  -3 -10  -4  196.30   46.71
  -3 -10  -2  258.91   48.37
  -3 -10  -1  332.62   48.82
  -3 -10   0  240.15   47.38
  -3  -9 -13   88.47   34.84
  -3  -9 -12  205.85   36.02
  -3  -9 -12  242.35   55.20
  -3  -9 -11  209.09   50.87
  -3  -9 -10  697.85   56.87
  -3  -9 -10  448.47   52.57
  -3  -9  -9 1062.36   56.47
  -3  -9  -9  600.67   53.64
  -3  -9  -8  536.67   47.97
  -3  -9  -8  195.23   46.99
  -3  -9  -7  137.95   42.55
  -3  -9  -7  184.62   39.80
  -3  -9  -6  234.12   36.90
  -3  -9  -6  287.28   43.23
  -3  -9  -6  176.74   25.66
  -3  -9  -5  508.89   44.86
  -3  -9  -5  415.21   33.61
  -3  -9  -4  545.17   45.94
  -3  -9  -3  760.08   49.31
  -3  -9  -2  484.53   48.12
  -3  -9  -1  376.33   48.20
  -3  -9  -1  399.87   46.45
  -3  -9   0  491.33   52.19
  -3  -9   0  457.14   47.25
  -3  -9   1  266.78   43.14
  -3  -9   3  303.23   70.33
  -3  -8 -14  129.34   33.38
  -3  -8 -14  160.27   56.07
  -3  -8 -13  162.21   34.63
  -3  -8 -12  287.83   34.29
  -3  -8 -12  378.05   54.30
  -3  -8 -11  290.10   33.55
  -3  -8 -11  334.31   51.01
  -3  -8 -10  194.64   46.13
  -3  -8 -10  337.49   51.39
  -3  -8  -9  365.22   42.35
  -3  -8  -9  432.20   46.58
  -3  -8  -9  582.18   48.63
  -3  -8  -8  492.41   43.27
  -3  -8  -8  563.20   45.87
  -3  -8  -8  735.99   47.39
  -3  -8  -7  265.99   41.56
  -3  -8  -7  391.59   42.64
  -3  -8  -7  338.15   39.04
  -3  -8  -7  409.88   41.97
  -3  -8  -6  146.72   33.69
  -3  -8  -6  141.10   36.96
  -3  -8  -5   83.25   31.67
  -3  -8  -5   32.28   25.44
  -3  -8  -5   97.06   35.28
  -3  -8  -4  201.97   31.34
  -3  -8  -4  137.59   35.45
  -3  -8  -3  451.29   41.73
  -3  -8  -3  449.06   38.69
  -3  -8  -2  481.18   43.61
  -3  -8  -2  490.39   35.06
  -3  -8  -2  506.65   41.43
  -3  -8  -1  102.74   39.88
  -3  -8   0   54.85   40.79
  -3  -8   0   36.44   38.27
  -3  -8   1  122.24   45.11
  -3  -8   1  136.27   52.87
  -3  -8   1  123.60   38.99
  -3  -8   2   82.50   47.98
  -3  -8   2  109.93   59.04
  -3  -8   2  100.71   34.73
  -3  -8   3  101.88   61.68
  -3  -8   4  144.01   65.01
  -3  -7 -14   45.77   31.33
  -3  -7 -14   52.21   52.43
  -3  -7 -13  161.14   34.66
  -3  -7 -13  211.27   52.48
  -3  -7 -12  226.45   34.70
  -3  -7 -11  147.82   31.50
  -3  -7 -11  148.47   46.82
  -3  -7 -10  142.88   40.12
  -3  -7 -10   89.50   30.15
  -3  -7 -10   82.57   43.30
  -3  -7  -9   80.02   37.41
  -3  -7  -9  119.57   38.98
  -3  -7  -8  259.53   41.17
  -3  -7  -8  112.86   37.19
  -3  -7  -8  286.07   41.50
  -3  -7  -8  102.45   34.90
  -3  -7  -7  159.25   34.07
  -3  -7  -7  134.51   35.28
  -3  -7  -6  115.86   31.11
  -3  -7  -6  156.76   34.25
  -3  -7  -5  324.70   32.49
  -3  -7  -5  379.48   35.33
  -3  -7  -4  182.63   32.95
  -3  -7  -4  147.64   27.84
  -3  -7  -4  201.62   32.73
  -3  -7  -3  398.52   31.28
  -3  -7  -3  438.24   37.46
  -3  -7  -3  437.18   35.83
  -3  -7  -2  840.07   44.72
  -3  -7  -2  826.71   42.73
  -3  -7  -1  477.48   30.10
  -3  -7  -1  510.03   40.71
  -3  -7  -1  489.05   36.80
  -3  -7   0  390.16   28.02
  -3  -7   0  433.68   40.77
  -3  -7   0  415.46   45.83
  -3  -7   1  279.29   35.33
  -3  -7   1  263.94   41.59
  -3  -7   1  252.08   47.40
  -3  -7   2 1148.80   57.51
  -3  -7   2 1089.64   47.64
  -3  -7   2 1102.83   63.69
  -3  -7   3 1175.65   70.00
  -3  -7   4 1063.69   65.94
  -3  -7   4 1102.03   73.08
  -3  -7   5  316.79   66.19
  -3  -7   5  245.07   57.83
  -3  -6 -14   86.90   27.87
  -3  -6 -13   47.26   32.73
  -3  -6 -13  133.73   49.20
  -3  -6 -12  134.08   33.21
  -3  -6 -12  133.29   46.78
  -3  -6 -11  313.45   34.44
  -3  -6 -10  287.16   40.46
  -3  -6 -10  285.00   32.55
  -3  -6 -10  280.10   42.11
  -3  -6  -9  344.64   39.37
  -3  -6  -9  363.49   39.81
  -3  -6  -8  688.27   42.49
  -3  -6  -8  774.29   44.31
  -3  -6  -7 1588.75   53.73
  -3  -6  -7 1242.34   50.99
  -3  -6  -7 1634.93   55.03
  -3  -6  -7 1300.28   52.80
  -3  -6  -6 1319.07   47.36
  -3  -6  -6 1222.97   46.86
  -3  -6  -6 1234.51   47.51
  -3  -6  -6 1350.24   49.24
  -3  -6  -5  958.51   41.78
  -3  -6  -5  899.05   39.22
  -3  -6  -5  955.70   39.38
  -3  -6  -5  825.41   38.69
  -3  -6  -4  973.71   41.07
  -3  -6  -4  886.86   40.40
  -3  -6  -4  940.77   37.00
  -3  -6  -4  864.84   31.39
  -3  -6  -3  870.74   40.02
  -3  -6  -3  879.65   34.23
  -3  -6  -3  853.37   39.65
  -3  -6  -3  737.48   34.22
  -3  -6  -2 3131.76   80.02
  -3  -6  -2 3118.91   78.22
  -3  -6  -2 3131.41   74.09
  -3  -6  -2 2868.20   76.41
  -3  -6  -1 1468.99   50.98
  -3  -6  -1 1479.46   49.31
  -3  -6  -1 1244.63   51.76
  -3  -6   0  294.08   33.90
  -3  -6   0  311.86   31.47
  -3  -6   0  276.37   37.28
  -3  -6   1  192.71   21.88
  -3  -6   1  176.31   34.72
  -3  -6   1  233.61   41.87
  -3  -6   2  890.88   47.74
  -3  -6   2  912.61   39.11
  -3  -6   2  863.37   55.64
  -3  -6   3 1138.01   56.42
  -3  -6   3 1162.76   42.41
  -3  -6   3 1220.34   63.85
  -3  -6   4  591.15   54.11
  -3  -6   4  627.10   61.57
  -3  -6   5  235.73   59.86
  -3  -6   5  194.93   51.90
  -3  -6   5  202.85   48.59
  -3  -6   6   78.34   61.04
  -3  -6   6   60.78   50.89
  -3  -6   6   59.76   49.50
  -3  -5 -14   59.81   26.70
  -3  -5 -13  167.27   31.94
  -3  -5 -13  232.14   46.74
  -3  -5 -12  512.23   37.80
  -3  -5 -12  578.73   51.10
  -3  -5 -11  833.13   40.19
  -3  -5 -10  419.02   43.10
  -3  -5 -10  356.82   33.49
  -3  -5 -10  360.50   41.65
  -3  -5  -9  291.98   36.94
  -3  -5  -9  291.77   37.63
  -3  -5  -8  794.77   41.32
  -3  -5  -8  649.35   32.63
  -3  -5  -8  788.73   40.77
  -3  -5  -7 1924.31   58.94
  -3  -5  -7 2038.14   61.65
  -3  -5  -7 1787.24   58.92
  -3  -5  -6 1712.19   53.02
  -3  -5  -6 1659.09   52.27
  -3  -5  -6 1630.13   50.85
  -3  -5  -6 1387.46   51.47
  -3  -5  -5  413.27   30.26
  -3  -5  -5  431.43   32.92
  -3  -5  -5  510.23   30.20
  -3  -5  -5  445.49   31.37
  -3  -5  -5  440.83   29.25
  -3  -5  -4  679.47   32.39
  -3  -5  -4  726.21   32.57
  -3  -5  -4  594.10   32.58
  -3  -5  -3  608.43   32.36
  -3  -5  -3  602.80   32.56
  -3  -5  -3  653.70   30.19
  -3  -5  -3  527.91   29.80
  -3  -5  -2  207.29   27.77
  -3  -5  -2  185.15   27.51
  -3  -5  -1   82.45   27.58
  -3  -5  -1   77.48   29.72
  -3  -5  -1   82.04   25.46
  -3  -5   0   72.38   28.23
  -3  -5   0   61.21   32.29
  -3  -5   0   61.15   25.34
  -3  -5   1   55.45   29.65
  -3  -5   1   45.07   37.94
  -3  -5   2   55.24   31.29
  -3  -5   2   60.05   40.05
  -3  -5   2   65.38   25.67
  -3  -5   3  128.48   35.97
  -3  -5   3  184.13   44.80
  -3  -5   3   92.68   26.40
  -3  -5   4  183.99   49.16
  -3  -5   4  118.63   22.70
  -3  -5   5   62.90   51.60
  -3  -5   5   59.00   42.85
  -3  -5   5   46.01   43.00
  -3  -5   6  118.20   56.89
  -3  -5   6  231.50   50.46
  -3  -5   6  153.39   46.57
  -3  -5   6  197.31   46.65
  -3  -5   7  407.84   64.84
  -3  -5   7  400.31   54.22
  -3  -5   7  434.20   53.13
  -3  -4 -13   91.02   30.76
  -3  -4 -12  116.40   33.11
  -3  -4 -12  225.87   42.45
  -3  -4 -11  339.30   34.97
  -3  -4 -11  399.55   43.98
  -3  -4 -10   84.65   31.91
  -3  -4 -10  116.05   36.54
  -3  -4  -9   25.03   33.34
  -3  -4  -9   26.81   31.96
  -3  -4  -8   66.79   31.01
  -3  -4  -8   80.99   31.09
  -3  -4  -7  101.16   30.08
  -3  -4  -7   97.85   24.63
  -3  -4  -7   95.07   27.91
  -3  -4  -6  160.49   26.41
  -3  -4  -6  188.60   28.03
  -3  -4  -5   33.36   26.61
  -3  -4  -5   58.44   20.09
  -3  -4  -5   47.97   22.90
  -3  -4  -5   32.51   29.57
  -3  -4  -5   43.06   26.08
  -3  -4  -4  514.97   28.22
  -3  -4  -4  511.56   29.77
  -3  -4  -4  576.74   28.79
  -3  -4  -4  535.50   29.67
  -3  -4  -3  968.93   34.23
  -3  -4  -3  923.01   36.49
  -3  -4  -3  802.14   29.05
  -3  -4  -2 1336.19   42.27
  -3  -4  -2 1340.91   41.71
  -3  -4  -2 1238.87   39.96
  -3  -4  -1 1600.16   48.39
  -3  -4  -1 1689.99   47.32
  -3  -4  -1 1598.03   48.16
  -3  -4   0 1067.08   39.90
  -3  -4   0 1076.01   36.83
  -3  -4   0 1021.02   42.47
  -3  -4   1 1662.15   53.02
  -3  -4   1 1794.74   48.22
  -3  -4   1 1726.67   57.77
  -3  -4   2 1544.81   52.22
  -3  -4   2 1620.18   57.86
  -3  -4   3 1840.80   48.21
  -3  -4   3 1793.75   64.82
  -3  -4   3 1789.19   58.40
  -3  -4   3 1782.60   59.07
  -3  -4   4 1695.11   59.20
  -3  -4   4 1675.47   44.63
  -3  -4   4 1593.37   41.00
  -3  -4   4 1711.83   64.67
  -3  -4   5 1242.53   61.76
  -3  -4   5 1183.20   36.25
  -3  -4   5 1252.33   54.69
  -3  -4   6  251.05   26.78
  -3  -4   6  292.20   53.39
  -3  -4   6  290.60   42.95
  -3  -4   6  240.54   44.09
  -3  -4   7  506.70   62.12
  -3  -4   7  473.51   32.12
  -3  -4   7  483.75   47.36
  -3  -4   7  497.95   50.39
  -3  -4   7  656.05   57.74
  -3  -4   8  775.37   52.89
  -3  -4   8  856.69   57.99
  -3  -4   8  780.15   71.64
  -3  -4   8  721.52   38.39
  -3  -4   8 1030.91   61.13
  -3  -3 -13   83.61   32.41
  -3  -3 -12   90.49   33.16
  -3  -3 -12  120.91   37.46
  -3  -3 -11  493.40   42.21
  -3  -3 -11  448.31   36.25
  -3  -3 -10  691.20   38.55
  -3  -3 -10  677.71   41.04
  -3  -3  -9  423.64   36.61
  -3  -3  -8  761.79   37.96
  -3  -3  -8  744.07   38.69
  -3  -3  -7 2043.54   56.47
  -3  -3  -7 2045.56   57.92
  -3  -3  -7 2070.45   59.13
  -3  -3  -6 2545.69   64.52
  -3  -3  -6 2600.79   66.75
  -3  -3  -6 2547.91   66.24
  -3  -3  -5 2020.36   54.27
  -3  -3  -5 1942.84   47.40
  -3  -3  -5 1949.79   52.03
  -3  -3  -4 1308.07   42.10
  -3  -3  -4 1464.09   38.64
  -3  -3  -4 1389.07   43.26
  -3  -3  -4 1499.45   44.63
  -3  -3  -3 2804.86   64.45
  -3  -3  -3 2714.82   61.80
  -3  -3  -3 2318.38   59.07
  -3  -3  -2 3232.97   72.46
  -3  -3  -2 3001.22   72.42
  -3  -3  -2 3016.87   69.49
  -3  -3  -1 6752.51  143.78
  -3  -3  -1 6674.43  142.59
  -3  -3  -1 6643.67  143.06
  -3  -3   0 3108.91   74.55
  -3  -3   0 3087.26   71.50
  -3  -3   0 3050.83   75.92
  -3  -3   1  901.66   36.17
  -3  -3   1  833.54   31.26
  -3  -3   1 1029.74   42.04
  -3  -3   2  903.25   32.34
  -3  -3   2 1121.08   37.30
  -3  -3   2  956.03   38.94
  -3  -3   3 1154.90   49.28
  -3  -3   3 1154.08   45.13
  -3  -3   3 1196.43   45.92
  -3  -3   4  838.62   39.76
  -3  -3   4  614.04   28.39
  -3  -3   4  799.97   45.71
  -3  -3   4  789.76   28.66
  -3  -3   4  762.51   41.42
  -3  -3   4  760.31   42.54
  -3  -3   5  533.71   24.14
  -3  -3   5  631.08   30.47
  -3  -3   5  601.97   48.59
  -3  -3   5  697.31   41.44
  -3  -3   6  158.12   46.96
  -3  -3   6  176.66   30.61
  -3  -3   6   95.54   38.84
  -3  -3   6  175.34   36.15
  -3  -3   7   12.69   51.10
  -3  -3   7   67.16   32.81
  -3  -3   7   32.31   45.28
  -3  -3   7  -14.97   40.87
  -3  -3   7   49.54   38.17
  -3  -3   8   51.69   58.07
  -3  -3   8  114.46   37.38
  -3  -3   8  125.65   51.00
  -3  -3   8  214.77   47.10
  -3  -3   8   46.74   44.54
  -3  -3   8   62.12   39.27
  -3  -3   9   48.98   64.69
  -3  -3   9  242.18   52.15
  -3  -3   9   97.65   41.00
  -3  -3   9   88.00   47.58
  -3  -3   9   50.95   40.44
  -3  -2 -12  334.34   38.45
  -3  -2 -11 1392.40   50.61
  -3  -2 -11 1316.06   49.49
  -3  -2 -10 3026.25   79.22
  -3  -2 -10 3039.86   78.83
  -3  -2  -8  675.00   36.80
  -3  -2  -8  644.67   36.65
  -3  -2  -7 1440.00   46.25
  -3  -2  -7 1584.03   48.23
  -3  -2  -7 1524.52   46.91
  -3  -2  -6 1659.71   47.94
  -3  -2  -6 1618.04   47.96
  -3  -2  -6 1622.93   47.52
  -3  -2  -5 1526.71   35.80
  -3  -2  -5 1522.33   44.68
  -3  -2  -5 1556.71   45.67
  -3  -2  -4 1398.24   35.00
  -3  -2  -4 1254.98   39.58
  -3  -2  -4 1375.29   41.33
  -3  -2  -3  509.40   26.14
  -3  -2  -3  566.34   26.35
  -3  -2  -3  523.68   26.21
  -3  -2  -3  551.76   23.21
  -3  -2  -2  826.03   30.83
  -3  -2  -1  596.51   25.60
  -3  -2  -1  571.96   27.54
  -3  -2   0  114.38   20.22
  -3  -2   0  113.79   25.95
  -3  -2   1   43.24   19.65
  -3  -2   1   70.96   14.80
  -3  -2   1   41.78   27.32
  -3  -2   2   40.92   19.28
  -3  -2   2    3.82   16.65
  -3  -2   2   48.13   24.40
  -3  -2   2    5.11   20.74
  -3  -2   2   12.81   18.48
  -3  -2   3   25.90   19.01
  -3  -2   3   54.52   26.91
  -3  -2   3  -30.26   27.27
  -3  -2   3   29.03   21.51
  -3  -2   3   53.48   19.19
  -3  -2   4  543.36   32.82
  -3  -2   4  615.58   39.05
  -3  -2   4  579.08   34.44
  -3  -2   4  563.73   37.05
  -3  -2   5  404.42   22.20
  -3  -2   5  501.59   42.06
  -3  -2   5  517.92   30.43
  -3  -2   5  484.66   36.72
  -3  -2   5  432.00   34.61
  -3  -2   6   69.84   17.65
  -3  -2   6  162.20   43.54
  -3  -2   6  147.46   31.04
  -3  -2   6  132.81   32.02
  -3  -2   7   26.12   48.41
  -3  -2   7   66.88   33.85
  -3  -2   7   55.24   35.76
  -3  -2   7   59.79   25.29
  -3  -2   7   40.21   32.38
  -3  -2   8  295.53   58.86
  -3  -2   8  297.55   41.69
  -3  -2   8  183.02   35.67
  -3  -2   8  275.87   39.65
  -3  -2   9  488.87   47.57
  -3  -2   9  397.83   39.83
  -3  -2   9  483.23   46.31
  -3  -2   9  473.48   66.43
  -3  -2   9  445.51   51.58
  -3  -1 -11  159.59   38.61
  -3  -1 -10  593.54   39.32
  -3  -1 -10  490.33   34.76
  -3  -1  -9  288.95   33.47
  -3  -1  -9  248.97   29.57
  -3  -1  -8   31.62   26.85
  -3  -1  -7   85.07   24.02
  -3  -1  -7   82.10   27.37
  -3  -1  -7   81.87   24.34
  -3  -1  -6  114.68   26.14
  -3  -1  -6   91.11   22.58
  -3  -1  -5 1271.98   39.42
  -3  -1  -5 1232.77   38.15
  -3  -1  -4  248.63   25.75
  -3  -1  -4  225.77   21.81
  -3  -1  -3  274.35   21.08
  -3  -1  -3  294.80   22.68
  -3  -1  -3  271.67   22.74
  -3  -1  -2 2451.70   57.38
  -3  -1  -2 2283.64   55.24
  -3  -1  -2 2360.40   54.85
  -3  -1  -1  166.13   22.35
  -3  -1  -1  117.53   13.79
  -3  -1   0  937.84   33.43
  -3  -1   0  929.10   34.61
  -3  -1   1  158.90   25.76
  -3  -1   1  107.00   15.05
  -3  -1   1   48.97   18.46
  -3  -1   2  506.20   23.18
  -3  -1   2  527.90   31.90
  -3  -1   2  578.22   24.99
  -3  -1   2  413.95   21.63
  -3  -1   3  972.27   33.76
  -3  -1   3  972.40   35.92
  -3  -1   3  932.25   31.33
  -3  -1   4 2299.96   63.32
  -3  -1   4 2401.16   65.98
  -3  -1   4 2568.61   59.88
  -3  -1   5 1320.68   47.31
  -3  -1   5 1255.08   47.94
  -3  -1   5 1315.64   53.48
  -3  -1   6  893.07   51.54
  -3  -1   6  794.83   34.52
  -3  -1   6  866.50   44.19
  -3  -1   7  449.36   38.03
  -3  -1   7  392.88   30.86
  -3  -1   7  337.95   23.94
  -3  -1   7  487.97   52.45
  -3  -1   7  627.99   39.80
  -3  -1   8  431.21   34.02
  -3  -1   8  611.73   41.85
  -3  -1   8  485.02   57.58
  -3  -1   8  426.13   32.66
  -3  -1   8  480.47   41.98
  -3  -1   8  355.53   47.25
  -3  -1   9  376.07   51.15
  -3  -1   9  476.93   50.34
  -3  -1   9  382.00   36.08
  -3  -1   9  578.31   46.14
  -3  -1   9  472.66   63.94
  -3  -1   9  466.94   43.78
  -3  -1   9  389.94   32.52
  -3  -1  10  226.42   67.10
  -3  -1  10  130.23   49.50
  -3  -1  10  347.15   48.06
  -3  -1  10   72.44   25.93
  -3  -1  10  241.67   44.15
  -3   0 -11  307.85   39.80
  -3   0 -10  661.36   43.47
  -3   0  -9  927.92   45.42
  -3   0  -9  770.55   39.50
  -3   0  -9  773.62   32.62
  -3   0  -8  609.38   30.04
  -3   0  -7  723.33   35.79
  -3   0  -7  771.25   41.99
  -3   0  -7  737.24   33.50
  -3   0  -6 1919.51   59.23
  -3   0  -6 2020.96   55.15
  -3   0  -6 1817.26   49.79
  -3   0  -5 2421.99   66.90
  -3   0  -5 2601.00   64.44
  -3   0  -5 2488.08   59.97
  -3   0  -4 3437.37   82.72
  -3   0  -4 3536.24   81.76
  -3   0  -4 3545.24   79.35
  -3   0  -3 1126.76   36.55
  -3   0  -3 1220.12   36.56
  -3   0  -2 5392.33  112.21
  -3   0  -2 5074.14  109.84
  -3   0  -1 1199.45   35.02
  -3   0   0  309.97   21.24
  -3   0   0  301.18   19.50
  -3   0   1  361.18   20.57
  -3   0   1  277.63   13.60
  -3   0   1  418.39   21.50
  -3   0   2  588.67   23.14
  -3   0   2  652.04   29.79
  -3   0   2  633.29   24.54
  -3   0   2  629.11   25.17
  -3   0   3  711.96   27.01
  -3   0   3  729.86   30.19
  -3   0   3  748.03   33.80
  -3   0   4  686.14   29.62
  -3   0   4  755.23   33.22
  -3   0   4  697.73   35.92
  -3   0   5  310.52   27.01
  -3   0   5  334.77   38.34
  -3   0   5  313.16   32.13
  -3   0   5  288.87   35.81
  -3   0   6  180.38   20.38
  -3   0   6  265.21   40.96
  -3   0   7  347.40   23.57
  -3   0   7  344.69   25.83
  -3   0   7  477.46   47.32
  -3   0   8  128.84   51.80
  -3   0   8  130.95   24.69
  -3   0   8  102.75   38.23
  -3   0   8  115.28   30.22
  -3   0   8  141.26   33.67
  -3   0   8   70.28   21.18
  -3   0   9   86.48   55.10
  -3   0   9  164.30   43.44
  -3   0   9   58.83   26.04
  -3   0   9  108.99   42.06
  -3   0   9  104.97   33.52
  -3   0   9   94.27   36.44
  -3   0   9   57.83   16.56
  -3   0  10   45.63   15.19
  -3   0  10  137.13   37.05
  -3   0  10  109.74   38.88
  -3   0  10  124.57   46.92
  -3   0  10   -3.11   46.31
  -3   0  10  225.99   47.21
  -3   0  11  121.64   40.69
  -3   0  11  213.60   78.77
  -3   0  11  282.94   48.72
  -3   1 -10 1155.06   53.76
  -3   1 -10 1126.00   65.69
  -3   1  -9 1915.83   64.60
  -3   1  -9 1942.29   74.39
  -3   1  -8  795.95   34.91
  -3   1  -8  724.62   29.87
  -3   1  -8  870.41   49.63
  -3   1  -7  429.26   34.20
  -3   1  -7  436.71   38.69
  -3   1  -6 1879.24   56.05
  -3   1  -6 1836.24   59.85
  -3   1  -5  924.85   39.31
  -3   1  -5  932.75   38.35
  -3   1  -5  876.87   31.00
  -3   1  -4  221.63   27.64
  -3   1  -4  221.00   25.62
  -3   1  -3  612.76   30.10
  -3   1  -3  623.58   29.87
  -3   1  -2 1085.67   35.70
  -3   1  -1  457.00   20.47
  -3   1   2  131.34   21.01
  -3   1   2   98.86   16.58
  -3   1   2  108.59   16.64
  -3   1   2  120.91   17.09
  -3   1   3   71.31   20.72
  -3   1   3  126.21   19.53
  -3   1   3   70.87   22.89
  -3   1   3   90.26   22.06
  -3   1   3  137.62   28.67
  -3   1   3  119.20   17.33
  -3   1   4  105.27   23.14
  -3   1   4  142.15   28.05
  -3   1   4  139.85   16.25
  -3   1   4  105.64   22.76
  -3   1   5  562.16   31.81
  -3   1   5  711.82   34.64
  -3   1   6  465.51   33.86
  -3   1   6  493.02   34.25
  -3   1   7  144.89   24.50
  -3   1   7  183.01   42.14
  -3   1   8   42.84   43.33
  -3   1   9  524.86   34.05
  -3   1   9  280.78   45.51
  -3   1   9  460.23   57.27
  -3   1   9  523.74   39.92
  -3   1   9  475.29   47.23
  -3   1  10  340.06   33.58
  -3   1  10  373.61   40.94
  -3   1  10  295.77   47.75
  -3   1  10  332.42   38.38
  -3   1  10  436.56   50.83
  -3   1  11  325.77   29.53
  -3   1  11  331.91   43.80
  -3   1  11  385.60   50.76
  -3   1  11  329.89   40.03
  -3   2 -11   94.34   55.46
  -3   2 -10   73.05   52.49
  -3   2  -9   87.80   46.39
  -3   2  -9   79.30   39.99
  -3   2  -8   55.50   23.74
  -3   2  -8   31.45   15.58
  -3   2  -8   97.77   41.40
  -3   2  -7   29.75   19.98
  -3   2  -7   17.68   22.57
  -3   2  -7   18.16   22.03
  -3   2  -7   51.54   35.59
  -3   2  -7   25.83   35.36
  -3   2  -6   35.58   33.46
  -3   2  -6   59.59   30.69
  -3   2  -5  400.37   33.07
  -3   2  -5  392.64   25.44
  -3   2  -5  353.68   33.35
  -3   2  -4 1349.97   45.91
  -3   2  -4 1270.39   46.41
  -3   2  -3  190.71   25.53
  -3   2  -3  174.85   27.66
  -3   2  -2   89.15   21.20
  -3   2  -1 1504.47   40.96
  -3   2  -1 1552.50   40.74
  -3   2   0 1594.73   38.99
  -3   2   0 1455.41   42.86
  -3   2   0 1410.41   40.68
  -3   2   1 1563.53   43.05
  -3   2   1 1559.12   41.03
  -3   2   2 1227.14   39.66
  -3   2   2 1270.93   37.04
  -3   2   2 1278.23   37.13
  -3   2   3  751.13   27.64
  -3   2   3  837.96   31.31
  -3   2   4  232.48   24.98
  -3   2   4  182.53   25.26
  -3   2   4  206.18   27.03
  -3   2   5 1407.98   49.35
  -3   2   5 1324.80   44.44
  -3   2   5 1377.06   47.30
  -3   2   5 1273.66   46.86
  -3   2   5 1364.42   44.75
  -3   2   6 1138.19   47.44
  -3   2   6 1082.63   42.14
  -3   2   6  964.90   41.75
  -3   2   6  984.39   45.31
  -3   2   7  775.19   36.62
  -3   2   7  900.23   48.47
  -3   2   7  890.88   42.53
  -3   2   8  208.00   39.01
  -3   2   8  237.00   42.77
  -3   2   8  116.16   29.44
  -3   2   9  297.23   33.51
  -3   2   9  358.82   37.38
  -3   2   9  423.69   44.33
  -3   2  10  329.57   36.02
  -3   2  10  510.15   49.15
  -3   2  10  347.05   39.47
  -3   2  10  515.44   51.45
  -3   2  11  108.31   34.82
  -3   2  11  178.10   40.20
  -3   2  11   84.04   33.64
  -3   3 -11  103.54   59.43
  -3   3 -10  585.39   61.73
  -3   3  -9 1528.38   72.74
  -3   3  -8 1447.94   65.72
  -3   3  -7  466.21   31.89
  -3   3  -7  454.33   45.22
  -3   3  -7  370.11   23.78
  -3   3  -7  275.80   20.29
  -3   3  -6  541.79   42.51
  -3   3  -6  560.08   41.03
  -3   3  -6  447.70   23.94
  -3   3  -5 1189.84   49.45
  -3   3  -5 1241.53   50.56
  -3   3  -4 1674.07   54.80
  -3   3  -4 1678.85   56.60
  -3   3  -3 1684.26   52.00
  -3   3  -3 1620.60   54.12
  -3   3  -2  722.38   31.64
  -3   3  -2  761.20   34.01
  -3   3  -1 1806.29   47.85
  -3   3  -1 1733.87   48.94
  -3   3   0 1727.05   49.37
  -3   3   0 1711.79   45.34
  -3   3   0 1682.30   45.92
  -3   3   1 1384.70   41.34
  -3   3   1 1358.52   45.29
  -3   3   1 1246.67   37.44
  -3   3   2 1076.05   36.65
  -3   3   2 1016.48   39.91
  -3   3   2  987.82   34.36
  -3   3   3 2597.40   61.22
  -3   3   3 2509.10   66.06
  -3   3   3 2506.24   62.49
  -3   3   4  998.99   32.68
  -3   3   4  986.92   40.13
  -3   3   4 1082.34   37.51
  -3   3   5  265.65   29.17
  -3   3   5  369.49   30.68
  -3   3   6  241.46   29.56
  -3   3   6  184.23   32.02
  -3   3   6  219.50   33.90
  -3   3   6  202.46   33.31
  -3   3   7  176.16   35.40
  -3   3   7  214.55   36.03
  -3   3   8  267.32   34.89
  -3   3   8  428.79   42.37
  -3   3   9  174.89   40.08
  -3   3   9  196.10   34.89
  -3   3   9  250.02   45.33
  -3   3  10   99.55   39.42
  -3   3  10  149.07   39.91
  -3   3  10  115.43   47.06
  -3   3  10   89.55   36.32
  -3   3  11  147.37   50.35
  -3   3  11  156.99   40.75
  -3   3  11   71.52   53.76
  -3   3  11  128.37   37.92
  -3   3  12   96.82   42.06
  -3   3  12   46.91   58.11
  -3   3  12  104.74   65.77
  -3   3  12   66.37   35.86
  -3   4 -10  606.14   64.35
  -3   4 -10  498.83   46.29
  -3   4  -9  447.09   57.90
  -3   4  -8  903.81   60.34
  -3   4  -7  808.60   53.86
  -3   4  -7  744.13   43.07
  -3   4  -6  625.57   47.20
  -3   4  -6  620.42   39.28
  -3   4  -6  702.72   47.66
  -3   4  -5  731.50   45.16
  -3   4  -5  799.71   47.98
  -3   4  -4  270.21   34.40
  -3   4  -4  297.76   38.30
  -3   4  -4  266.00   32.59
  -3   4  -3  428.98   35.70
  -3   4  -2  690.39   35.93
  -3   4  -2  793.43   36.34
  -3   4  -1  929.87   37.76
  -3   4  -1  958.75   36.07
  -3   4   0  188.35   24.26
  -3   4   0  128.28   24.89
  -3   4   0  141.05   27.81
  -3   4   1  272.45   30.13
  -3   4   1  302.69   25.04
  -3   4   2  236.25   32.49
  -3   4   2  120.88   27.28
  -3   4   2  192.17   25.56
  -3   4   3  179.07   32.63
  -3   4   3  158.37   27.54
  -3   4   3  206.85   25.50
  -3   4   4  179.68   27.80
  -3   4   4  290.48   32.45
  -3   4   4  163.68   25.44
  -3   4   5  124.99   29.20
  -3   4   5  180.83   32.10
  -3   4   6  213.75   33.63
  -3   4   6  252.28   33.04
  -3   4   7  605.41   39.65
  -3   4   7  604.97   41.33
  -3   4   8  152.59   39.95
  -3   4   9  219.58   37.96
  -3   4   9  183.59   45.24
  -3   4  10  119.72   38.90
  -3   4  10  116.66   48.10
  -3   4  10  133.26   40.36
  -3   4  10   64.53   45.82
  -3   4  11   45.88   40.03
  -3   4  11  132.25   42.83
  -3   4  11    8.38   56.13
  -3   4  11   91.97   50.34
  -3   4  11   35.42   41.33
  -3   4  12  110.69   44.85
  -3   4  12   62.82   64.49
  -3   4  12  130.65   42.33
  -3   5  -9  158.00   56.75
  -3   5  -8   93.77   41.82
  -3   5  -8  128.19   51.43
  -3   5  -7   63.26   40.98
  -3   5  -7  148.55   47.85
  -3   5  -6  101.98   37.74
  -3   5  -6  164.10   44.28
  -3   5  -6   21.81   19.88
  -3   5  -5  156.14   40.55
  -3   5  -5   72.67   23.14
  -3   5  -4  368.10   39.96
  -3   5  -4  428.25   36.95
  -3   5  -3  754.05   41.30
  -3   5  -3  676.91   41.50
  -3   5  -3  861.51   40.52
  -3   5  -3  787.16   44.92
  -3   5  -2  455.66   34.21
  -3   5  -2  413.22   34.65
  -3   5  -1  110.96   26.05
  -3   5  -1  107.61   28.91
  -3   5   0  442.58   31.08
  -3   5   0  461.02   27.08
  -3   5   1  477.55   28.09
  -3   5   1  425.87   36.35
  -3   5   2  468.88   29.31
  -3   5   2  443.47   34.52
  -3   5   3  892.52   36.85
  -3   5   3  880.53   40.51
  -3   5   3  960.60   42.19
  -3   5   4  515.18   32.42
  -3   5   4  512.76   33.42
  -3   5   4  503.92   38.18
  -3   5   5  356.54   33.52
  -3   5   5  309.78   31.73
  -3   5   5  466.43   36.40
  -3   5   6  814.61   43.28
  -3   5   6  860.67   42.36
  -3   5   6  880.07   42.34
  -3   5   7  400.48   37.90
  -3   5   7  451.95   39.36
  -3   5   8  370.80   43.16
  -3   5   9  451.09   43.58
  -3   5   9  505.71   43.22
  -3   5   9  495.65   49.34
  -3   5  10  387.64   43.65
  -3   5  10  421.28   52.13
  -3   5  10  428.95   50.49
  -3   5  11  172.30   46.06
  -3   5  11  121.04   41.45
  -3   5  11  191.06   50.98
  -3   5  11  104.57   54.57
  -3   5  11  183.77   44.15
  -3   5  12  140.61   46.44
  -3   5  12   78.17   40.78
  -3   5  12  144.02   46.06
  -3   6  -8  600.69   53.42
  -3   6  -8  573.19   63.45
  -3   6  -7  376.71   49.48
  -3   6  -7  427.48   56.70
  -3   6  -6  307.37   44.99
  -3   6  -6  329.51   51.35
  -3   6  -6  134.07   23.64
  -3   6  -5  510.23   45.86
  -3   6  -5  423.54   48.64
  -3   6  -5  270.61   27.22
  -3   6  -4  962.69   52.50
  -3   6  -4  728.45   36.69
  -3   6  -3 1651.58   59.79
  -3   6  -3 1566.60   56.73
  -3   6  -3 1453.70   59.95
  -3   6  -3 1400.88   48.09
  -3   6  -2  892.89   44.62
  -3   6  -2  811.09   43.33
  -3   6  -2  768.93   45.13
  -3   6  -1  788.72   40.43
  -3   6  -1  693.90   37.44
  -3   6  -1  763.47   42.51
  -3   6  -1  675.13   43.04
  -3   6   0 1205.01   46.60
  -3   6   0 1135.95   39.90
  -3   6   0 1332.47   49.65
  -3   6   0 1170.25   48.42
  -3   6   1 1133.10   47.63
  -3   6   1  991.48   44.86
  -3   6   1  977.34   38.25
  -3   6   2  334.61   33.97
  -3   6   2  313.92   28.58
  -3   6   3  691.97   40.05
  -3   6   3  732.57   38.40
  -3   6   4 1529.79   51.83
  -3   6   4 1373.13   50.08
  -3   6   4 1391.15   51.40
  -3   6   5  788.43   42.69
  -3   6   5  767.74   40.41
  -3   6   5  813.97   44.96
  -3   6   6  373.92   40.23
  -3   6   6  311.06   37.12
  -3   6   7  322.54   40.33
  -3   6   7  249.62   40.11
  -3   6   8  225.66   41.22
  -3   6   8  180.05   41.39
  -3   6   9  390.28   47.99
  -3   6   9  320.60   44.39
  -3   6   9  301.88   43.08
  -3   6  10  173.49   46.53
  -3   6  10  335.26   46.12
  -3   6  10  266.13   51.00
  -3   6  10  176.10   43.23
  -3   6  10  186.56   48.15
  -3   6  11   37.31   47.96
  -3   6  11  -69.11   49.67
  -3   6  12    6.46   46.58
  -3   6  12   73.68   47.74
  -3   7  -7  326.18   54.73
  -3   7  -7  355.55   61.06
  -3   7  -6  341.89   51.59
  -3   7  -6  482.34   59.09
  -3   7  -5  469.38   51.26
  -3   7  -5  531.03   55.43
  -3   7  -5  353.06   32.06
  -3   7  -4  458.71   50.28
  -3   7  -4  374.35   33.59
  -3   7  -3  679.19   49.71
  -3   7  -3  641.88   46.96
  -3   7  -3  670.58   50.46
  -3   7  -3  513.78   38.23
  -3   7  -2  619.20   46.01
  -3   7  -2  615.19   44.64
  -3   7  -2  511.48   46.98
  -3   7  -2  513.08   37.70
  -3   7  -1  605.11   42.13
  -3   7  -1  604.67   42.84
  -3   7  -1  587.07   44.93
  -3   7   0  683.47   40.99
  -3   7   0  665.12   43.86
  -3   7   0  778.68   41.28
  -3   7   1  355.29   36.70
  -3   7   1  255.58   35.86
  -3   7   2  291.87   37.15
  -3   7   2  171.80   30.40
  -3   7   3  224.19   35.82
  -3   7   3   97.00   30.62
  -3   7   4  254.40   34.62
  -3   7   5  256.83   36.80
  -3   7   5  163.54   36.28
  -3   7   6   86.94   36.39
  -3   7   6   -0.56   35.42
  -3   7   7   44.12   39.92
  -3   7   7    3.44   39.19
  -3   7   8   24.99   41.79
  -3   7   8   -8.01   40.45
  -3   7   8  -19.78   37.33
  -3   7   9   55.54   45.80
  -3   7   9   61.66   42.00
  -3   7   9  121.47   42.21
  -3   7  10   34.73   42.51
  -3   7  10   33.29   44.82
  -3   7  10   82.25   45.09
  -3   7  11  119.61   50.05
  -3   7  11   40.27   46.37
  -3   7  12  -73.82   50.11
  -3   8  -6   39.18   21.29
  -3   8  -6  144.70   59.07
  -3   8  -6  103.20   54.19
  -3   8  -5   90.27   31.46
  -3   8  -5  137.14   56.43
  -3   8  -5  119.04   52.51
  -3   8  -4  164.33   51.62
  -3   8  -4  129.56   34.17
  -3   8  -3   96.19   47.24
  -3   8  -3   52.47   44.71
  -3   8  -3   73.77   34.86
  -3   8  -2   66.13   35.60
  -3   8  -2   11.35   41.15
  -3   8  -2    7.71   43.55
  -3   8  -2   40.02   40.26
  -3   8  -1  150.98   38.46
  -3   8  -1  107.16   38.38
  -3   8  -1   77.85   42.78
  -3   8  -1  152.31   40.89
  -3   8   0  166.30   28.99
  -3   8   0   73.67   38.65
  -3   8   0  115.15   37.05
  -3   8   0   32.96   39.73
  -3   8   1  290.82   39.99
  -3   8   1  261.26   40.17
  -3   8   2  115.59   39.57
  -3   8   3   72.50   40.69
  -3   8   3  110.30   34.38
  -3   8   4  433.99   46.13
  -3   8   4  421.10   40.96
  -3   8   5  707.18   48.71
  -3   8   5  636.60   45.66
  -3   8   6  128.91   43.21
  -3   8   6  231.70   42.51
  -3   8   7   28.65   41.37
  -3   8   7   69.51   41.74
  -3   8   8  145.79   46.01
  -3   8   8   75.79   44.36
  -3   8   8  103.10   41.63
  -3   8   9  279.26   48.41
  -3   8   9  235.50   49.95
  -3   8   9  222.58   45.80
  -3   8   9  297.27   50.47
  -3   8  10  326.26   49.96
  -3   8  10  373.13   52.68
  -3   8  11  183.24   50.55
  -3   8  11  388.60   51.16
  -3   8  12  113.92   52.38
  -3   8  12  261.03   52.80
  -3   9  -5  317.09   58.59
  -3   9  -5  314.70   62.52
  -3   9  -5  221.17   33.64
  -3   9  -4  247.01   55.92
  -3   9  -4  288.39   59.30
  -3   9  -4  209.13   37.77
  -3   9  -3  151.70   53.29
  -3   9  -3  148.38   38.30
  -3   9  -2  212.86   47.00
  -3   9  -2  133.13   28.23
  -3   9  -2  214.58   53.21
  -3   9  -2  175.77   39.98
  -3   9  -1  254.67   33.71
  -3   9  -1  352.27   48.97
  -3   9  -1  345.26   46.67
  -3   9  -1  323.71   51.44
  -3   9  -1  301.51   41.22
  -3   9   0  504.24   47.31
  -3   9   0  424.85   44.76
  -3   9   0  494.56   51.63
  -3   9   0  538.17   48.65
  -3   9   1  570.51   37.30
  -3   9   1  544.14   47.71
  -3   9   1  552.64   51.18
  -3   9   2  286.35   47.28
  -3   9   2  342.95   39.67
  -3   9   2  431.45   43.78
  -3   9   3  210.81   46.50
  -3   9   4  410.68   50.01
  -3   9   5  693.76   54.33
  -3   9   5  780.61   50.84
  -3   9   6  381.48   47.58
  -3   9   6  520.66   51.71
  -3   9   6  520.29   48.59
  -3   9   7  199.88   46.07
  -3   9   7  242.91   47.59
  -3   9   7  112.05   47.35
  -3   9   8  131.73   43.81
  -3   9   8  169.13   48.13
  -3   9   8   53.07   47.01
  -3   9   9  130.53   46.83
  -3   9   9  429.44   50.22
  -3   9  10  193.81   50.28
  -3   9  10  476.84   54.36
  -3   9  11  123.82   51.45
  -3   9  11  101.50   53.20
  -3  10  -3  186.49   41.54
  -3  10  -3  238.84   59.51
  -3  10  -3  254.45   56.42
  -3  10  -2  143.50   42.67
  -3  10  -2  110.16   54.34
  -3  10  -2   93.44   27.78
  -3  10  -1  197.81   43.81
  -3  10  -1  112.66   54.65
  -3  10  -1  131.20   31.94
  -3  10  -1  193.02   50.66
  -3  10   0  253.69   45.83
  -3  10   0  236.03   37.32
  -3  10   0  307.07   51.92
  -3  10   0  191.55   52.79
  -3  10   1  295.00   48.45
  -3  10   1  294.11   33.71
  -3  10   1  278.79   52.68
  -3  10   1  260.76   45.05
  -3  10   1  313.08   50.81
  -3  10   1  231.70   39.96
  -3  10   2  197.26   39.41
  -3  10   2  228.72   46.97
  -3  10   2  246.36   41.68
  -3  10   2  203.15   46.26
  -3  10   3   85.12   43.51
  -3  10   3  170.97   48.04
  -3  10   3  138.80   38.53
  -3  10   4  101.35   42.42
  -3  10   4   88.33   47.59
  -3  10   4   46.39   42.38
  -3  10   5   94.58   43.07
  -3  10   5  155.00   48.41
  -3  10   6   63.47   44.61
  -3  10   6   54.28   47.89
  -3  10   7   92.34   45.54
  -3  10   7   -2.75   49.40
  -3  10   8    0.51   45.56
  -3  10   8  -47.11   52.34
  -3  10   9   41.30   47.96
  -3  10  10   -2.29   48.98
  -3  10  11   -5.44   52.24
  -3  11  -1   85.87   46.32
  -3  11  -1  -16.76   57.44
  -3  11  -1  114.63   54.18
  -3  11  -1   28.02   31.50
  -3  11   0  104.21   46.71
  -3  11   0   27.91   54.91
  -3  11   0   29.00   35.12
  -3  11   0  -16.86   50.96
  -3  11   1   64.06   48.13
  -3  11   1   11.19   37.22
  -3  11   1  -18.17   49.68
  -3  11   1   81.99   52.71
  -3  11   2   37.39   50.00
  -3  11   2   25.81   40.42
  -3  11   2   41.39   49.55
  -3  11   2   55.49   50.39
  -3  11   2   66.72   36.84
  -3  11   3  -42.48   41.35
  -3  11   3   48.87   46.94
  -3  11   3   71.53   43.35
  -3  11   3   48.25   47.79
  -3  11   4   -4.42   47.54
  -3  11   4   57.26   49.94
  -3  11   4   86.57   43.77
  -3  11   5  106.98   47.07
  -3  11   6  220.09   52.41
  -3  11   6  142.04   49.56
  -3  11   7  185.23   51.03
  -3  11   8  139.39   52.13
  -3  11   9   73.83   53.33
  -3  11  10  187.23   54.82
  -3  12   1  209.15   42.81
  -3  12   1  247.59   56.86
  -3  12   1  244.99   61.16
  -3  12   2  295.70   45.42
  -3  12   2  394.12   58.97
  -3  12   2  342.26   60.86
  -3  12   2  418.07   37.86
  -3  12   3  181.76   46.87
  -3  12   3  237.98   55.53
  -3  12   3  205.12   56.16
  -3  12   3  162.60   43.42
  -3  12   4   20.87   44.00
  -3  12   4   80.58   51.41
  -3  12   4   51.49   53.24
  -3  12   4   95.56   48.58
  -3  12   5  221.38   56.25
  -3  12   5  265.52   52.71
  -3  12   5  299.28   49.70
  -3  12   6  408.31   61.00
  -3  12   6  589.49   57.83
  -3  12   7  149.80   57.53
  -3  12   7  253.52   56.89
  -3  12   8   69.32   54.99
  -3  12   9   74.09   56.80
  -2 -13  -9  138.38   59.49
  -2 -13  -9  265.61   63.04
  -2 -13  -8  129.97   30.95
  -2 -13  -8   75.51   30.26
  -2 -13  -8  109.83   58.46
  -2 -13  -7  -43.80   46.68
  -2 -13  -7  161.11   59.26
  -2 -13  -6  213.86   54.85
  -2 -12 -11  102.40   57.93
  -2 -12 -11  282.69   66.88
  -2 -12 -10   71.11   55.71
  -2 -12 -10  187.71   61.02
  -2 -12  -9   41.63   54.03
  -2 -12  -9  191.65   58.33
  -2 -12  -8   72.60   25.83
  -2 -12  -8   80.28   53.90
  -2 -12  -7  142.35   41.81
  -2 -12  -7  179.07   54.23
  -2 -12  -6  395.62   51.01
  -2 -12  -6  285.02   55.24
  -2 -12  -4   64.66   54.60
  -2 -11 -12  271.56   59.74
  -2 -11 -11  340.48   57.58
  -2 -11 -11  523.83   64.53
  -2 -11 -10  204.22   52.58
  -2 -11 -10  412.22   59.11
  -2 -11  -9  230.98   53.31
  -2 -11  -9  457.20   56.17
  -2 -11  -8  367.83   54.38
  -2 -11  -8  619.80   54.61
  -2 -11  -7  435.58   54.07
  -2 -11  -7  474.11   35.66
  -2 -11  -6  422.12   51.78
  -2 -11  -6  556.27   47.13
  -2 -11  -5  311.79   49.66
  -2 -11  -3  646.68   56.18
  -2 -10 -13  198.30   34.32
  -2 -10 -12  204.35   56.12
  -2 -10 -11  163.37   51.48
  -2 -10 -11  294.15   59.53
  -2 -10 -10  281.31   52.60
  -2 -10 -10  503.61   56.77
  -2 -10  -9  399.30   50.91
  -2 -10  -9  286.74   48.90
  -2 -10  -9  375.36   50.46
  -2 -10  -8  504.67   52.57
  -2 -10  -8  746.51   52.82
  -2 -10  -7  264.00   46.69
  -2 -10  -7  242.96   24.44
  -2 -10  -6  129.69   45.03
  -2 -10  -6  193.03   37.96
  -2 -10  -5   98.61   45.11
  -2 -10  -4  173.28   44.15
  -2 -10  -2  188.12   46.34
  -2 -10  -1  125.26   45.48
  -2 -10  -1   22.58   55.23
  -2  -9 -13  119.28   31.46
  -2  -9 -12  125.05   51.91
  -2  -9 -12   91.88   31.23
  -2  -9 -11   43.08   45.72
  -2  -9 -10  282.99   50.88
  -2  -9 -10  334.55   52.17
  -2  -9  -9   63.85   44.77
  -2  -9  -8  278.12   42.92
  -2  -9  -8  370.77   44.33
  -2  -9  -7   94.38   41.90
  -2  -9  -7  226.70   39.68
  -2  -9  -6  272.88   31.74
  -2  -9  -6  312.68   43.78
  -2  -9  -5  439.60   45.34
  -2  -9  -4  218.27   42.16
  -2  -9  -3  169.22   41.15
  -2  -9  -1  426.02   44.88
  -2  -9   0  641.29   59.14
  -2  -9   0  558.76   46.25
  -2  -9   1  479.21   61.79
  -2  -9   4  272.27   68.91
  -2  -8 -14   31.75   16.40
  -2  -8 -13   73.87   29.24
  -2  -8 -12  192.72   31.07
  -2  -8 -11  289.85   31.70
  -2  -8 -11  310.84   49.73
  -2  -8 -10  340.82   47.01
  -2  -8 -10  507.93   52.44
  -2  -8  -9  436.68   46.18
  -2  -8  -9  569.37   48.30
  -2  -8  -9  681.30   49.83
  -2  -8  -8  931.87   48.92
  -2  -8  -8 1009.62   49.04
  -2  -8  -7 1069.02   47.12
  -2  -8  -7 1089.42   46.90
  -2  -8  -6  565.47   25.21
  -2  -8  -6  686.06   44.09
  -2  -8  -5 1167.27   50.61
  -2  -8  -4  994.28   47.67
  -2  -8  -3  895.72   46.85
  -2  -8  -2  859.29   46.38
  -2  -8   0  235.73   42.24
  -2  -8   0  241.78   37.15
  -2  -8   1  862.09   53.50
  -2  -8   1  972.14   60.51
  -2  -8   1  867.24   44.72
  -2  -8   2  938.62   57.55
  -2  -8   2 1062.79   65.06
  -2  -8   5  241.82   67.62
  -2  -7 -13   83.72   26.21
  -2  -7 -12  300.05   30.84
  -2  -7 -11  565.80   33.93
  -2  -7 -11  655.39   52.71
  -2  -7 -10  422.47   31.11
  -2  -7 -10  456.86   46.35
  -2  -7  -9  464.85   46.24
  -2  -7  -9  736.58   50.28
  -2  -7  -8  534.07   43.69
  -2  -7  -8  713.72   43.50
  -2  -7  -8  724.42   43.94
  -2  -7  -7 1098.03   50.85
  -2  -7  -7 1302.84   48.27
  -2  -7  -7 1311.63   48.97
  -2  -7  -6  765.86   39.43
  -2  -7  -6  672.25   40.83
  -2  -7  -6  821.62   38.15
  -2  -7  -5  253.54   30.19
  -2  -7  -5  223.81   33.23
  -2  -7  -4  138.31   28.65
  -2  -7  -4   88.95   30.27
  -2  -7  -3  770.92   35.32
  -2  -7  -3  704.53   37.83
  -2  -7  -2 1236.73   49.05
  -2  -7  -2 1166.89   45.49
  -2  -7  -1  403.77   37.63
  -2  -7  -1  381.58   33.71
  -2  -7   0  248.11   36.92
  -2  -7   1   95.12   36.51
  -2  -7   1   81.75   31.49
  -2  -7   2  312.89   48.29
  -2  -7   2  305.45   42.64
  -2  -7   5   67.46   60.95
  -2  -7   5   28.86   53.44
  -2  -7   5   31.81   48.85
  -2  -7   6  120.29   64.67
  -2  -6 -12  130.97   27.84
  -2  -6 -12  237.36   46.81
  -2  -6 -11  183.05   28.68
  -2  -6 -10   91.13   27.40
  -2  -6 -10  139.90   39.53
  -2  -6  -9   96.67   24.22
  -2  -6  -9   60.33   37.36
  -2  -6  -8  199.59   34.17
  -2  -6  -8  138.69   34.23
  -2  -6  -6  227.66   30.60
  -2  -6  -6  257.92   32.38
  -2  -6  -5  220.25   28.29
  -2  -6  -5  213.11   30.36
  -2  -6  -4  461.84   30.33
  -2  -6  -4  459.76   33.03
  -2  -6  -3  387.43   32.52
  -2  -6  -3  405.95   28.20
  -2  -6  -3  430.75   32.85
  -2  -6  -2  342.44   31.75
  -2  -6  -2  305.64   24.74
  -2  -6  -2  360.48   30.54
  -2  -6  -1  397.10   33.45
  -2  -6  -1  327.27   25.60
  -2  -6  -1  354.86   29.23
  -2  -6   0  428.76   35.47
  -2  -6   0  500.25   31.45
  -2  -6   1  753.40   42.02
  -2  -6   2  913.64   47.49
  -2  -6   2  903.86   37.41
  -2  -6   3 1048.60   55.74
  -2  -6   3 1036.01   52.06
  -2  -6   5  344.58   56.69
  -2  -6   5  335.10   53.05
  -2  -6   5  375.44   48.21
  -2  -6   6  379.34   54.32
  -2  -6   6  427.15   52.94
  -2  -6   6  399.24   62.39
  -2  -6   7  914.86   75.07
  -2  -6   7  906.15   62.28
  -2  -6   7  807.49   61.50
  -2  -5 -12   48.08   23.19
  -2  -5 -11  247.59   28.50
  -2  -5 -10  241.65   27.76
  -2  -5  -9  255.12   25.79
  -2  -5  -9  271.13   37.92
  -2  -5  -8  808.12   41.46
  -2  -5  -8  776.65   41.12
  -2  -5  -7  719.79   37.81
  -2  -5  -7  776.14   37.38
  -2  -5  -6 1566.60   51.46
  -2  -5  -6 1632.77   51.04
  -2  -5  -5  932.30   36.66
  -2  -5  -5  894.49   37.95
  -2  -5  -4  970.89   36.12
  -2  -5  -4 1019.24   39.49
  -2  -5  -3 1699.81   50.00
  -2  -5  -3 1745.16   47.41
  -2  -5  -3 1616.23   49.66
  -2  -5  -2 2411.13   65.68
  -2  -5  -2 2640.29   65.01
  -2  -5  -2 2592.17   62.49
  -2  -5  -1 1820.56   53.41
  -2  -5  -1 1877.28   52.03
  -2  -5  -1 1863.80   47.48
  -2  -5   0 1674.64   52.56
  -2  -5   0 1742.27   48.64
  -2  -5   0 1707.79   43.15
  -2  -5   1  871.73   39.77
  -2  -5   1  959.90   35.22
  -2  -5   2 1125.48   45.70
  -2  -5   3 1503.24   53.34
  -2  -5   3 1385.44   40.33
  -2  -5   4  941.48   52.89
  -2  -5   5  253.64   50.67
  -2  -5   5  274.32   47.91
  -2  -5   5  226.86   44.01
  -2  -5   5  228.96   41.45
  -2  -5   6  160.45   55.01
  -2  -5   6  164.10   47.07
  -2  -5   6  113.57   44.34
  -2  -5   7  230.47   61.77
  -2  -5   7  240.35   49.85
  -2  -5   7  187.07   48.02
  -2  -5   7   99.11   17.55
  -2  -5   8  227.57   65.04
  -2  -5   8   72.35   20.40
  -2  -5   8  170.44   49.02
  -2  -5   8  170.94   52.23
  -2  -4 -11  748.39   45.07
  -2  -4 -11  545.65   29.88
  -2  -4 -10  628.98   31.84
  -2  -4  -9  230.79   26.09
  -2  -4  -9  273.62   34.21
  -2  -4  -8 1171.91   45.90
  -2  -4  -8 1327.24   48.57
  -2  -4  -7 1301.66   45.98
  -2  -4  -7 1279.06   38.68
  -2  -4  -7 1349.02   47.22
  -2  -4  -6  819.14   35.10
  -2  -4  -6  740.79   35.39
  -2  -4  -5  614.03   30.18
  -2  -4  -5  574.57   32.49
  -2  -4  -4  307.74   23.55
  -2  -4  -4  261.49   24.02
  -2  -4  -4  328.17   27.82
  -2  -4  -4  310.62   25.26
  -2  -4  -3  469.38   25.26
  -2  -4  -3  450.61   26.98
  -2  -4  -3  447.77   25.68
  -2  -4  -2 1525.88   44.02
  -2  -4  -2 1453.75   40.65
  -2  -4  -2 1524.46   43.64
  -2  -4  -1  912.65   32.10
  -2  -4  -1  840.94   32.92
  -2  -4   0  258.12   22.37
  -2  -4   0  291.31   25.84
  -2  -4   1   96.85   21.10
  -2  -4   1   88.21   25.45
  -2  -4   2   84.85   26.55
  -2  -4   3   71.26   28.28
  -2  -4   3   38.98   32.29
  -2  -4   4   60.67   15.05
  -2  -4   4   38.90   36.28
  -2  -4   4   64.72   31.46
  -2  -4   4   53.02   38.82
  -2  -4   5  189.26   20.94
  -2  -4   5  198.60   42.78
  -2  -4   5  327.38   39.18
  -2  -4   5  264.00   45.49
  -2  -4   6  126.14   49.61
  -2  -4   6  125.05   25.44
  -2  -4   6  227.80   43.75
  -2  -4   6  140.72   40.33
  -2  -4   6  131.26   40.81
  -2  -4   7  203.82   55.82
  -2  -4   7  174.29   43.86
  -2  -4   7  186.11   42.24
  -2  -4   7  139.30   29.19
  -2  -4   8  469.48   48.82
  -2  -4   8  579.93   52.86
  -2  -4   8  464.92   36.05
  -2  -4   8  571.65   66.23
  -2  -4   9  414.16   68.81
  -2  -4   9  319.30   36.42
  -2  -4   9  404.98   53.03
  -2  -4   9  294.70   48.44
  -2  -3 -11  187.73   26.77
  -2  -3 -10  106.58   25.83
  -2  -3 -10  147.33   33.93
  -2  -3  -9   74.33   23.88
  -2  -3  -8   47.96   29.41
  -2  -3  -8   65.12   29.48
  -2  -3  -7  110.23   28.34
  -2  -3  -7  133.95   22.63
  -2  -3  -7  138.50   26.65
  -2  -3  -6  242.97   27.45
  -2  -3  -6  362.82   23.23
  -2  -3  -6  256.78   27.24
  -2  -3  -5  540.86   26.19
  -2  -3  -5  507.10   28.21
  -2  -3  -5  509.38   28.69
  -2  -3  -4  138.00   21.62
  -2  -3  -4  114.37   21.47
  -2  -3  -4  107.47   18.77
  -2  -3  -3  769.20   27.75
  -2  -3  -3  763.05   28.87
  -2  -3  -3  660.11   27.81
  -2  -3  -3  736.58   27.70
  -2  -3  -2  839.43   28.95
  -2  -3  -2  811.49   30.03
  -2  -3  -1 1297.42   38.30
  -2  -3  -1 1307.86   37.20
  -2  -3  -1 1235.81   37.72
  -2  -3   0 1164.71   36.37
  -2  -3   0 1132.51   33.16
  -2  -3   0 1038.26   38.83
  -2  -3   1 1913.95   51.48
  -2  -3   1 1905.81   47.22
  -2  -3   2  818.26   27.22
  -2  -3   2  862.14   34.91
  -2  -3   2  830.38   35.84
  -2  -3   2  819.76   21.98
  -2  -3   3 2625.56   69.96
  -2  -3   3 2716.33   69.07
  -2  -3   3 2771.11   72.70
  -2  -3   4 3049.19   76.63
  -2  -3   4 2660.26   61.09
  -2  -3   4 3004.00   79.02
  -2  -3   4 2882.90   73.93
  -2  -3   4 2961.05   79.29
  -2  -3   5 2381.41   59.66
  -2  -3   5 2479.25   76.67
  -2  -3   5 2615.63   73.61
  -2  -3   5 2597.65   76.49
  -2  -3   6 1007.27   38.23
  -2  -3   6 1083.58   57.76
  -2  -3   6 1094.98   52.53
  -2  -3   6 1034.04   47.87
  -2  -3   6 1098.06   48.79
  -2  -3   6 1087.32   56.97
  -2  -3   7  429.79   41.64
  -2  -3   7  498.20   43.71
  -2  -3   7  590.42   48.14
  -2  -3   7  484.52   54.69
  -2  -3   7  468.17   35.23
  -2  -3   8 1136.98   68.97
  -2  -3   8  972.57   45.29
  -2  -3   8  997.76   51.49
  -2  -3   8 1019.48   54.15
  -2  -3   9  784.97   47.11
  -2  -3   9  959.95   72.93
  -2  -3   9  856.85   51.38
  -2  -3   9  898.25   55.99
  -2  -2 -10  829.60   36.55
  -2  -2  -9  596.08   35.30
  -2  -2  -9  680.20   31.90
  -2  -2  -8  327.16   31.51
  -2  -2  -7 2041.37   54.54
  -2  -2  -7 1965.21   53.16
  -2  -2  -7 1973.82   56.52
  -2  -2  -6 2387.31   59.70
  -2  -2  -6 2277.12   56.73
  -2  -2  -6 2365.47   60.61
  -2  -2  -5 4840.34  109.22
  -2  -2  -5 5021.16  110.68
  -2  -2  -5 5157.66  108.42
  -2  -2  -4 1660.03   44.30
  -2  -2  -4 1673.93   44.52
  -2  -2  -4 1639.54   42.41
  -2  -2  -3 2573.92   63.54
  -2  -2  -3 2829.99   59.91
  -2  -2  -3 2679.55   63.77
  -2  -2  -3 2786.69   64.09
  -2  -2  -2 1484.59   37.05
  -2  -2  -2 1457.50   35.34
  -2  -2  -2 1212.91   33.53
  -2  -2  -1 9783.72  198.18
  -2  -2  -1 9999.00  198.25
  -2  -2  -1 9213.53  196.70
  -2  -2   0 5862.29  124.96
  -2  -2   0 5845.06  122.96
  -2  -2   0 5937.18  125.65
  -2  -2   1 3232.80   67.92
  -2  -2   1 2926.74   65.12
  -2  -2   1 3296.21   74.76
  -2  -2   1 3320.20   71.89
  -2  -2   1 3023.48   70.20
  -2  -2   2  720.76   28.97
  -2  -2   2  718.77   23.89
  -2  -2   2  724.26   21.69
  -2  -2   2  772.89   31.10
  -2  -2   2  697.08   30.95
  -2  -2   3 1353.02   41.36
  -2  -2   3 1206.45   32.42
  -2  -2   3 1390.33   41.54
  -2  -2   3 1371.85   45.73
  -2  -2   3 1319.63   33.95
  -2  -2   4 2999.89   78.78
  -2  -2   4 3017.96   75.19
  -2  -2   4 3157.22   80.13
  -2  -2   5 1363.91   50.54
  -2  -2   5 1353.30   53.35
  -2  -2   5 1240.70   45.44
  -2  -2   5 1323.36   51.53
  -2  -2   6  452.52   40.32
  -2  -2   6  407.87   24.03
  -2  -2   6  492.41   45.75
  -2  -2   6  533.64   31.62
  -2  -2   6  469.44   34.35
  -2  -2   6  471.53   42.05
  -2  -2   7  112.15   48.78
  -2  -2   7  160.39   31.98
  -2  -2   7  104.72   39.06
  -2  -2   7  120.65   34.97
  -2  -2   7  110.78   31.41
  -2  -2   8  130.52   54.48
  -2  -2   8  155.44   38.83
  -2  -2   8  134.13   35.05
  -2  -2   8  139.81   36.01
  -2  -2   9   43.47   58.64
  -2  -2   9   83.28   40.43
  -2  -2   9   50.82   36.34
  -2  -2   9  118.94   39.70
  -2  -2  10   28.68   63.10
  -2  -2  10   52.69   40.46
  -2  -2  10   42.35   38.31
  -2  -2  10   59.76   42.63
  -2  -1 -10 1138.93   44.34
  -2  -1  -9 1620.87   48.03
  -2  -1  -9 1871.46   52.93
  -2  -1  -7 1246.26   39.57
  -2  -1  -7 1335.05   41.71
  -2  -1  -7 1341.23   43.21
  -2  -1  -6 2387.04   58.98
  -2  -1  -6 2356.56   58.14
  -2  -1  -6 2310.44   60.27
  -2  -1  -5 3510.17   79.29
  -2  -1  -5 3524.36   80.11
  -2  -1  -5 3442.12   78.33
  -2  -1  -4 2690.08   61.32
  -2  -1  -4 2557.71   60.72
  -2  -1  -3 1516.54   38.72
  -2  -1  -3 1424.42   37.98
  -2  -1  -2  191.60   15.96
  -2  -1  -2  165.65   16.35
  -2  -1  -1  355.97   19.31
  -2  -1  -1  243.38   16.58
  -2  -1   0 1651.66   42.66
  -2  -1   0 1766.52   42.71
  -2  -1   1  133.66   14.40
  -2  -1   1  170.28   17.83
  -2  -1   1  112.93   14.34
  -2  -1   2   89.10   18.46
  -2  -1   2   49.19   19.93
  -2  -1   2  118.73   15.12
  -2  -1   3   53.18   19.91
  -2  -1   3   12.94   22.06
  -2  -1   3   65.95   16.50
  -2  -1   4   56.04   24.35
  -2  -1   4   94.26   21.47
  -2  -1   5  462.80   27.12
  -2  -1   5  480.54   38.12
  -2  -1   5  453.07   29.19
  -2  -1   5  484.60   32.86
  -2  -1   6  195.26   31.97
  -2  -1   6  246.94   17.38
  -2  -1   6  318.63   41.45
  -2  -1   6  245.58   26.35
  -2  -1   6  265.31   33.68
  -2  -1   7   42.38   34.06
  -2  -1   7  137.08   35.84
  -2  -1   7   90.57   12.49
  -2  -1   7  145.06   32.37
  -2  -1   7  144.35   25.72
  -2  -1   7  166.21   31.61
  -2  -1   7  166.94   27.31
  -2  -1   7  140.52   44.69
  -2  -1   8  113.25   40.59
  -2  -1   8  285.30   29.96
  -2  -1   8  280.87   32.50
  -2  -1   8  303.55   35.49
  -2  -1   8  318.35   51.22
  -2  -1   8  362.36   39.52
  -2  -1   9  633.84   43.00
  -2  -1   9  528.77   36.47
  -2  -1   9  638.81   45.09
  -2  -1   9  600.96   61.23
  -2  -1  10  609.23   45.16
  -2  -1  10  410.00   33.55
  -2  -1  10  639.99   48.52
  -2  -1  11  307.54   58.33
  -2  -1  11  364.71   47.46
  -2  -1  11  253.90   43.01
  -2  -1  11  222.61   26.27
  -2   0  -9   67.00   30.64
  -2   0  -8   36.60   20.19
  -2   0  -7   85.31   31.66
  -2   0  -7   97.53   26.25
  -2   0  -6   54.70   27.37
  -2   0  -6   31.67   21.54
  -2   0  -6   75.78   24.99
  -2   0  -6   35.16   18.83
  -2   0  -5  987.04   32.39
  -2   0  -5  904.28   30.21
  -2   0  -5 1062.40   34.90
  -2   0  -5  934.51   39.34
  -2   0  -4 1161.10   33.08
  -2   0  -4 1270.58   37.17
  -2   0  -4 1278.92   40.06
  -2   0  -3  113.95   16.79
  -2   0  -3   99.80   20.02
  -2   0  -3  100.74   19.32
  -2   0  -2  394.63   18.47
  -2   0  -2  401.65   20.07
  -2   0   0 8080.21  160.37
  -2   0   0 7610.51  159.54
  -2   0   1 3517.01   73.20
  -2   0   1 3479.74   74.29
  -2   0   2 3238.51   70.84
  -2   0   2 3158.46   71.85
  -2   0   2 3433.48   73.30
  -2   0   3  928.47   30.08
  -2   0   3 1071.08   38.84
  -2   0   3 1131.33   34.42
  -2   0   3 1031.72   35.51
  -2   0   4 2140.73   60.29
  -2   0   4 2008.20   52.67
  -2   0   4 2141.82   55.75
  -2   0   4 2070.93   54.58
  -2   0   5 1898.59   58.53
  -2   0   5 1855.04   49.95
  -2   0   5 1709.06   52.86
  -2   0   6 1155.68   35.45
  -2   0   6 1321.50   51.87
  -2   0   6 1397.69   44.32
  -2   0   6 1092.97   34.73
  -2   0   6 1264.40   47.28
  -2   0   7  569.88   26.26
  -2   0   7  601.32   46.15
  -2   0   7  533.57   32.94
  -2   0   7  426.68   26.78
  -2   0   7  606.15   32.10
  -2   0   7  595.54   40.49
  -2   0   8  875.23   41.12
  -2   0   8  877.57   32.16
  -2   0   8 1015.97   57.23
  -2   0   8 1088.09   47.06
  -2   0   8  894.01   41.22
  -2   0   8  860.06   32.17
  -2   0   9  692.38   27.87
  -2   0   9  902.21   41.63
  -2   0   9  860.45   42.94
  -2   0   9  575.49   27.91
  -2   0   9 1082.68   49.34
  -2   0   9  999.92   63.26
  -2   0  10  429.76   38.68
  -2   0  10  497.82   47.43
  -2   0  11  392.06   50.65
  -2   0  11  295.82   40.34
  -2   1  -9  933.98   57.51
  -2   1  -8  432.32   43.52
  -2   1  -7  369.15   18.55
  -2   1  -7  492.65   39.21
  -2   1  -6 2287.14   60.81
  -2   1  -6 2135.55   53.83
  -2   1  -6 2244.24   66.46
  -2   1  -5 3574.00   77.55
  -2   1  -5 3987.70   86.33
  -2   1  -5 3420.48   77.50
  -2   1  -5 3737.96   89.71
  -2   1  -4 5953.57  130.50
  -2   1  -4 6109.52  124.59
  -2   1  -4 6039.56  133.27
  -2   1  -4 5880.60  124.77
  -2   1  -3 2388.37   58.93
  -2   1  -3 2312.03   59.11
  -2   1  -2 3469.77   78.34
  -2   1  -2 3468.41   78.14
  -2   1  -1 1613.96   38.83
  -2   1  -1 1575.11   38.84
  -2   1   0 8037.83  164.25
  -2   1   0 8008.27  165.27
  -2   1   1 2841.53   62.56
  -2   1   2 3538.32   76.50
  -2   1   2 3643.98   77.74
  -2   1   2 3495.30   76.70
  -2   1   3 1072.22   38.27
  -2   1   3 1073.08   32.21
  -2   1   3  986.37   31.53
  -2   1   3  937.61   34.57
  -2   1   3  981.83   25.01
  -2   1   4  592.06   27.46
  -2   1   4  508.88   16.66
  -2   1   4  639.64   26.67
  -2   1   4  641.61   34.11
  -2   1   5  854.28   40.06
  -2   1   5  883.38   34.45
  -2   1   5  861.82   35.73
  -2   1   5  825.39   34.73
  -2   1   6  658.21   33.80
  -2   1   6  627.92   39.07
  -2   1   6  568.68   32.85
  -2   1   6  547.34   33.74
  -2   1   7  153.87   24.10
  -2   1   7  247.15   37.22
  -2   1   7  255.49   31.68
  -2   1   7  246.95   32.45
  -2   1   8  199.11   36.68
  -2   1   8  141.67   25.26
  -2   1   8  116.89   29.06
  -2   1   8  202.88   42.61
  -2   1   9  231.45   28.86
  -2   1   9  250.17   34.62
  -2   1   9  311.28   41.62
  -2   1   9  207.56   30.57
  -2   1   9  274.99   48.15
  -2   1  10   64.53   32.33
  -2   1  10   89.09   35.74
  -2   1  10  115.14   27.36
  -2   1  10  153.51   44.49
  -2   1  11  130.09   32.90
  -2   1  11   24.13   21.78
  -2   1  11  137.05   46.96
  -2   2 -11  358.95   60.30
  -2   2 -10 1171.94   70.45
  -2   2  -9 1590.92   71.63
  -2   2  -8 1067.07   56.99
  -2   2  -7  357.82   39.49
  -2   2  -6 1463.02   53.95
  -2   2  -6 1470.12   51.41
  -2   2  -5 1410.30   48.66
  -2   2  -5 1282.64   39.18
  -2   2  -5 1445.88   48.66
  -2   2  -4 2173.94   62.22
  -2   2  -4 2289.65   62.51
  -2   2  -4 2279.10   55.32
  -2   2  -3 1246.38   40.97
  -2   2  -3 1254.77   42.12
  -2   2  -2 1081.88   35.00
  -2   2  -2  961.41   34.36
  -2   2  -2 1137.66   36.69
  -2   2  -1  291.68   20.02
  -2   2  -1  228.28   21.09
  -2   2   0  244.38   20.25
  -2   2   0  333.20   18.76
  -2   2   0  214.26   18.42
  -2   2   1  263.93   20.66
  -2   2   1  216.07   25.18
  -2   2   1  240.78   18.35
  -2   2   2  135.54   17.57
  -2   2   2  162.80   21.31
  -2   2   3  265.69   22.00
  -2   2   3  227.98   20.86
  -2   2   4  129.69   25.72
  -2   2   4  109.83   23.13
  -2   2   4  129.58   25.31
  -2   2   4  136.15   21.82
  -2   2   6  667.38   30.33
  -2   2   6  486.30   33.76
  -2   2   6  723.50   38.48
  -2   2   6  685.57   38.76
  -2   2   6  629.92   39.90
  -2   2   6  578.01   34.63
  -2   2   7  288.17   33.13
  -2   2   7  295.30   34.44
  -2   2   7  359.54   40.10
  -2   2   8  177.77   36.78
  -2   2   8  275.87   28.46
  -2   2   8  304.68   36.70
  -2   2   8  312.17   46.66
  -2   2   8  234.93   32.31
  -2   2   9  157.28   32.37
  -2   2   9  153.55   30.36
  -2   2  10  241.88   37.56
  -2   2  10  228.76   33.44
  -2   2  11  116.54   31.65
  -2   2  11  266.66   39.90
  -2   2  11  130.26   32.26
  -2   2  11  248.29   45.59
  -2   2  12   62.57   32.13
  -2   2  12   74.90   58.11
  -2   2  12   59.99   29.15
  -2   3 -10  187.28   55.51
  -2   3  -9   63.77   49.00
  -2   3  -9   14.30   39.75
  -2   3  -8  147.09   45.69
  -2   3  -7  118.74   40.22
  -2   3  -6   92.97   34.12
  -2   3  -5  332.75   33.62
  -2   3  -5  309.92   26.72
  -2   3  -5  325.30   35.36
  -2   3  -4 1383.94   47.89
  -2   3  -4 1409.97   42.51
  -2   3  -4 1276.79   49.04
  -2   3  -3  661.43   35.01
  -2   3  -2  114.85   29.15
  -2   3  -1  491.95   25.22
  -2   3  -1  458.36   25.59
  -2   3   0 1937.73   45.15
  -2   3   0 1686.68   45.72
  -2   3   0 1662.26   49.24
  -2   3   1 1574.18   41.17
  -2   3   1 1461.39   44.71
  -2   3   2 1594.56   41.72
  -2   3   2 1543.86   45.14
  -2   3   2 1498.06   43.09
  -2   3   3 1418.19   40.14
  -2   3   3 1572.20   41.86
  -2   3   3 1306.64   37.83
  -2   3   4  726.28   31.16
  -2   3   4  733.02   31.81
  -2   3   5  925.97   35.45
  -2   3   5  961.08   37.03
  -2   3   5  955.56   38.34
  -2   3   5  909.25   34.35
  -2   3   6 1215.00   42.39
  -2   3   6 1213.17   46.03
  -2   3   6 1533.56   47.69
  -2   3   6 1349.63   45.35
  -2   3   6 1173.47   45.00
  -2   3   7 1158.09   47.28
  -2   3   7 1069.68   45.54
  -2   3   7 1142.87   46.79
  -2   3   7 1083.90   49.39
  -2   3   7 1089.80   46.56
  -2   3   8  738.01   44.54
  -2   3   8  791.20   39.07
  -2   3   8  824.68   45.94
  -2   3   8  748.02   40.45
  -2   3   8  804.13   47.20
  -2   3   9  430.65   36.66
  -2   3   9  488.70   44.93
  -2   3   9  448.97   35.66
  -2   3   9  472.74   49.17
  -2   3  10  262.77   39.12
  -2   3  10  212.84   36.34
  -2   3  10  220.46   37.89
  -2   3  11  316.72   52.56
  -2   3  11  286.73   38.39
  -2   3  11  278.66   43.63
  -2   3  12  234.03   42.92
  -2   3  12  153.68   31.29
  -2   3  12  184.68   56.03
  -2   3  12  206.96   37.87
  -2   4 -10  202.12   44.93
  -2   4 -10  251.16   60.29
  -2   4  -9  576.26   51.15
  -2   4  -9  653.56   61.17
  -2   4  -8  646.97   57.66
  -2   4  -7  473.93   40.41
  -2   4  -7  597.13   51.04
  -2   4  -6  455.05   36.48
  -2   4  -6  487.56   44.74
  -2   4  -5 1258.40   50.57
  -2   4  -5  844.06   26.57
  -2   4  -4 1958.29   63.71
  -2   4  -4 2202.50   59.82
  -2   4  -3 3039.10   79.85
  -2   4  -3 3015.16   80.50
  -2   4  -3 3039.09   81.53
  -2   4  -3 3136.63   76.88
  -2   4  -2 1639.89   49.94
  -2   4  -2 1549.59   51.01
  -2   4  -2 1658.11   49.20
  -2   4  -2 1576.15   53.17
  -2   4  -1 1189.25   39.14
  -2   4  -1 1065.56   41.34
  -2   4   0  800.09   32.40
  -2   4   0  787.92   28.62
  -2   4   1 1024.61   34.45
  -2   4   1 1106.36   39.30
  -2   4   2 1015.79   35.18
  -2   4   2 1118.50   38.14
  -2   4   3 1133.14   36.83
  -2   4   3 1146.20   40.84
  -2   4   4 1170.70   41.68
  -2   4   4 1133.66   39.46
  -2   4   4 1263.89   39.64
  -2   4   5  970.42   39.41
  -2   4   5  918.97   37.43
  -2   4   5  851.91   35.08
  -2   4   6  583.19   35.74
  -2   4   6  702.26   36.96
  -2   4   7  394.12   34.59
  -2   4   7  460.92   37.79
  -2   4   7  442.78   36.44
  -2   4   8  517.39   39.59
  -2   4   8  465.90   41.18
  -2   4   8  564.54   42.43
  -2   4   8  436.65   36.17
  -2   4   8  517.97   41.60
  -2   4   9  454.07   45.32
  -2   4   9  423.39   38.87
  -2   4   9  436.92   45.32
  -2   4   9  411.73   39.59
  -2   4   9  519.00   46.03
  -2   4  10  191.07   38.92
  -2   4  10  205.36   46.14
  -2   4  10  199.86   46.22
  -2   4  11  167.76   43.80
  -2   4  11   87.62   36.17
  -2   4  11  112.88   55.54
  -2   4  11  220.09   41.19
  -2   4  12  123.13   43.83
  -2   4  12   91.71   57.11
  -2   4  12  176.03   42.00
  -2   5  -9  647.74   65.81
  -2   5  -8  517.15   59.10
  -2   5  -7  702.72   47.54
  -2   5  -7  730.23   57.04
  -2   5  -6  691.50   44.89
  -2   5  -6  679.21   53.20
  -2   5  -5  807.11   49.41
  -2   5  -5  585.84   25.26
  -2   5  -4  455.43   36.12
  -2   5  -4  453.23   39.45
  -2   5  -4  323.38   24.90
  -2   5  -3  252.56   33.52
  -2   5  -3  256.27   33.07
  -2   5  -3  298.19   34.25
  -2   5  -2  674.35   36.85
  -2   5  -2  648.02   36.49
  -2   5  -2  598.31   36.93
  -2   5  -2  584.44   30.45
  -2   5  -1 1240.34   40.75
  -2   5  -1 1215.12   44.74
  -2   5  -1 1243.23   45.95
  -2   5   0  513.44   29.75
  -2   5   0  425.91   24.81
  -2   5   0  523.93   32.23
  -2   5   4  382.05   29.96
  -2   5   4  538.11   34.38
  -2   5   5  228.58   31.63
  -2   5   5  160.93   29.26
  -2   5   6  196.88   33.09
  -2   5   7  336.64   33.51
  -2   5   7  177.63   35.19
  -2   5   8   67.89   32.82
  -2   5   8  170.23   34.96
  -2   5   8   61.22   37.73
  -2   5   9  132.33   37.79
  -2   5   9  102.64   42.53
  -2   5  10  209.67   42.72
  -2   5  10  237.50   42.82
  -2   5  10  131.20   46.61
  -2   5  11  213.91   44.87
  -2   5  12  196.25   47.35
  -2   5  12  162.72   38.76
  -2   5  12  186.63   45.35
  -2   6  -8  108.09   58.39
  -2   6  -7  116.26   46.50
  -2   6  -7  181.52   53.98
  -2   6  -6   43.57   43.61
  -2   6  -6  126.10   49.81
  -2   6  -5  352.09   48.07
  -2   6  -5  194.59   22.97
  -2   6  -4  239.12   41.82
  -2   6  -4  195.14   26.15
  -2   6  -3  875.02   46.53
  -2   6  -3  942.72   45.30
  -2   6  -3  668.60   45.46
  -2   6  -3  724.46   34.05
  -2   6  -2  619.01   39.82
  -2   6  -2  771.77   40.14
  -2   6  -2  545.92   41.22
  -2   6  -1  149.15   29.40
  -2   6  -1  172.27   31.76
  -2   6  -1  187.95   29.92
  -2   6  -1  107.48   32.08
  -2   6   0  420.20   24.87
  -2   6   0  289.70   31.84
  -2   6   1 1106.30   42.49
  -2   6   1 1055.01   36.53
  -2   6   2 1232.17   45.49
  -2   6   2 1058.48   40.47
  -2   6   3  576.28   37.00
  -2   6   3  482.89   33.21
  -2   6   4  517.76   33.56
  -2   6   5  380.62   33.15
  -2   6   5  303.74   33.27
  -2   6   5  444.02   36.08
  -2   6   6  591.04   40.61
  -2   6   6  606.53   39.17
  -2   6   7  665.81   39.27
  -2   6   7  620.64   42.73
  -2   6   7  681.63   42.67
  -2   6   8  390.51   39.61
  -2   6   8  408.19   39.50
  -2   6   8  354.77   42.75
  -2   6   9  428.45   46.76
  -2   6   9  377.97   41.68
  -2   6   9  385.44   42.06
  -2   6  10  356.07   46.03
  -2   6  10  377.85   50.27
  -2   6  10  334.59   43.69
  -2   6  10  398.70   44.30
  -2   6  11  420.48   48.24
  -2   6  11  314.04   48.79
  -2   6  12  235.69   47.94
  -2   6  13  250.95   52.08
  -2   6  13  226.39   40.09
  -2   6  13  227.57   49.92
  -2   7  -7  321.95   53.72
  -2   7  -7  338.68   60.73
  -2   7  -6  232.90   52.49
  -2   7  -6  334.59   56.67
  -2   7  -5  335.10   50.16
  -2   7  -5  444.39   54.50
  -2   7  -5  257.89   27.43
  -2   7  -4  727.02   54.73
  -2   7  -4  641.89   34.28
  -2   7  -3  495.13   46.57
  -2   7  -3  438.55   44.89
  -2   7  -3  484.76   46.88
  -2   7  -3  359.43   33.16
  -2   7  -2  838.20   48.48
  -2   7  -2  902.34   47.37
  -2   7  -2  815.76   50.52
  -2   7  -2  800.55   39.33
  -2   7  -1  513.08   39.04
  -2   7  -1  480.14   41.04
  -2   7  -1  458.23   41.63
  -2   7   0  733.89   40.06
  -2   7   0  687.35   39.53
  -2   7   0  710.26   43.16
  -2   7   0  665.92   41.61
  -2   7   1  875.21   45.22
  -2   7   1  960.15   43.93
  -2   7   2  796.68   43.89
  -2   7   2  762.09   35.37
  -2   7   3  514.11   40.47
  -2   7   3  562.64   35.15
  -2   7   4 1028.35   48.77
  -2   7   4 1053.99   44.42
  -2   7   5  903.59   45.01
  -2   7   5  906.19   43.90
  -2   7   6  227.10   33.77
  -2   7   6  289.95   37.21
  -2   7   6  241.08   37.29
  -2   7   7  243.86   36.03
  -2   7   7  334.56   40.01
  -2   7   7  296.65   40.12
  -2   7   8  325.42   41.74
  -2   7   8  200.32   42.89
  -2   7   8  219.09   37.84
  -2   7   8  185.24   39.01
  -2   7   9  397.78   46.64
  -2   7   9  356.57   47.39
  -2   7   9  410.29   40.87
  -2   7   9  378.17   43.59
  -2   7  10  302.77   49.92
  -2   7  10  291.00   45.22
  -2   7  10  249.82   40.86
  -2   7  11  133.59   45.06
  -2   7  11   92.17   43.63
  -2   7  11  194.99   48.78
  -2   7  12    8.20   47.97
  -2   7  12  113.71   48.75
  -2   8  -6  304.70   57.69
  -2   8  -6  421.34   63.06
  -2   8  -5  605.78   59.15
  -2   8  -5  585.41   61.56
  -2   8  -4  583.26   57.45
  -2   8  -4  468.10   34.63
  -2   8  -3  158.74   46.29
  -2   8  -3  197.91   48.15
  -2   8  -3  165.20   34.79
  -2   8  -2  122.00   23.49
  -2   8  -2  176.41   44.30
  -2   8  -2  157.15   42.95
  -2   8  -2  175.32   45.65
  -2   8  -2  182.18   35.88
  -2   8  -1  559.91   44.05
  -2   8  -1  441.28   29.93
  -2   8  -1  448.56   45.74
  -2   8  -1  533.51   48.54
  -2   8  -1  463.46   38.96
  -2   8   0  646.57   43.75
  -2   8   0  639.22   35.67
  -2   8   0  700.70   47.00
  -2   8   0  666.23   47.72
  -2   8   1  431.53   39.46
  -2   8   1  342.27   30.09
  -2   8   1  356.46   39.62
  -2   8   1  369.07   40.83
  -2   8   2  291.71   39.76
  -2   8   4  311.10   40.60
  -2   8   4  202.12   37.13
  -2   8   5  444.32   40.20
  -2   8   5  463.23   42.12
  -2   8   5  485.83   40.42
  -2   8   6  124.71   38.08
  -2   8   6   71.44   39.53
  -2   8   7  136.74   36.96
  -2   8   7  147.14   40.29
  -2   8   7   97.20   41.75
  -2   8   8  131.96   42.28
  -2   8   8   47.57   43.24
  -2   8   8  115.78   38.29
  -2   8   9  135.34   44.51
  -2   8   9   73.54   45.69
  -2   8   9  103.47   41.36
  -2   8   9  136.45   41.81
  -2   8  10  107.47   44.49
  -2   8  10  -83.50   46.86
  -2   8  11   34.50   46.23
  -2   8  11   26.24   42.75
  -2   8  11   46.38   48.10
  -2   8  12   35.88   48.60
  -2   9  -5   84.62   27.83
  -2   9  -5  208.29   62.05
  -2   9  -5  152.76   59.22
  -2   9  -4  184.00   35.36
  -2   9  -4  221.40   58.06
  -2   9  -4   99.90   54.89
  -2   9  -3  168.97   54.60
  -2   9  -3  132.19   36.11
  -2   9  -2  165.71   39.64
  -2   9  -2  253.30   52.63
  -2   9  -2  322.44   50.49
  -2   9  -1  115.88   39.87
  -2   9  -1   46.83   47.05
  -2   9  -1   86.65   42.82
  -2   9  -1   79.02   26.70
  -2   9  -1   95.60   44.41
  -2   9   0  107.83   39.30
  -2   9   0   94.30   44.43
  -2   9   0  107.02   40.00
  -2   9   0   80.17   30.56
  -2   9   0   75.05   43.95
  -2   9   1  167.02   29.03
  -2   9   1  115.51   33.52
  -2   9   1  116.18   42.53
  -2   9   1  120.71   41.80
  -2   9   2  309.24   42.78
  -2   9   2  268.31   33.45
  -2   9   2  280.88   41.40
  -2   9   2  249.76   41.51
  -2   9   3  113.26   38.40
  -2   9   3  138.74   36.04
  -2   9   3  123.43   41.39
  -2   9   4  148.54   38.34
  -2   9   4  182.00   42.86
  -2   9   5  190.85   39.96
  -2   9   5  204.81   44.21
  -2   9   6  244.28   42.52
  -2   9   6  276.93   44.51
  -2   9   6  216.66   44.13
  -2   9   7  447.67   47.92
  -2   9   7  552.44   48.32
  -2   9   7  573.78   50.41
  -2   9   8  272.72   44.53
  -2   9   8  302.38   48.35
  -2   9   8  313.77   49.06
  -2   9   9  192.85   45.27
  -2   9   9  292.74   50.31
  -2   9   9  249.75   50.77
  -2   9  10  363.82   49.45
  -2   9  10  660.42   47.38
  -2   9  11  247.63   51.58
  -2   9  11  386.67   47.22
  -2   9  12   63.50   51.38
  -2   9  12  147.71   49.27
  -2  10  -3  131.06   59.88
  -2  10  -3  159.01   38.46
  -2  10  -2  161.69   55.87
  -2  10  -2  133.87   40.72
  -2  10  -1  194.19   50.66
  -2  10  -1  202.10   55.17
  -2  10  -1  230.87   43.35
  -2  10   0  312.66   33.65
  -2  10   0  357.03   47.10
  -2  10   0  380.42   51.29
  -2  10   0  395.58   54.45
  -2  10   1  452.60   46.15
  -2  10   1  444.85   49.34
  -2  10   1  333.01   38.41
  -2  10   1  413.31   31.09
  -2  10   1  430.73   51.78
  -2  10   1  409.51   50.86
  -2  10   2  332.98   38.04
  -2  10   2  355.20   40.93
  -2  10   2  413.09   48.79
  -2  10   2  487.56   48.89
  -2  10   3  271.61   46.95
  -2  10   3  322.60   48.16
  -2  10   3  380.96   38.59
  -2  10   4  257.95   45.69
  -2  10   4  243.95   49.07
  -2  10   4  282.36   43.85
  -2  10   5  476.67   50.21
  -2  10   5  456.94   47.07
  -2  10   5  518.75   53.11
  -2  10   6  452.49   48.55
  -2  10   6  507.50   53.96
  -2  10   7  381.44   49.48
  -2  10   7  354.32   52.39
  -2  10   8  237.90   49.05
  -2  10   8  291.75   51.27
  -2  10   9   66.12   46.83
  -2  10  10  213.91   51.22
  -2  10  11  144.85   52.62
  -2  10  12  106.55   53.21
  -2  11  -2  251.10   62.46
  -2  11  -2  211.26   44.31
  -2  11  -1  157.37   46.04
  -2  11  -1  157.76   59.65
  -2  11  -1  214.70   55.32
  -2  11   0  222.19   48.94
  -2  11   0  156.25   56.30
  -2  11   0  186.97   33.68
  -2  11   0  210.63   53.40
  -2  11   1  344.23   51.19
  -2  11   1  274.73   38.23
  -2  11   1  228.70   53.49
  -2  11   1  307.02   55.07
  -2  11   2  195.03   51.39
  -2  11   2  173.31   40.42
  -2  11   2  143.46   48.90
  -2  11   2  180.01   49.57
  -2  11   2  212.52   33.99
  -2  11   3   89.54   37.38
  -2  11   3   50.29   41.98
  -2  11   3   56.75   48.85
  -2  11   3   97.27   46.84
  -2  11   4   63.31   47.60
  -2  11   4   64.80   42.90
  -2  11   4   97.90   51.67
  -2  11   4   91.89   40.63
  -2  11   5   95.03   49.63
  -2  11   5  143.20   52.59
  -2  11   5   98.31   48.01
  -2  11   6  129.69   50.28
  -2  11   6  112.50   45.51
  -2  11   6  191.51   50.36
  -2  11   7   53.24   50.52
  -2  11   7   55.20   47.50
  -2  11   8   17.47   47.89
  -2  11   9   63.24   50.62
  -2  11  10   -9.33   50.88
  -2  11  11   31.88   53.60
  -2  12   1   91.71   50.21
  -2  12   1   54.73   35.88
  -2  12   1   81.08   55.24
  -2  12   1   25.68   55.80
  -2  12   2   74.92   52.34
  -2  12   2   43.53   39.84
  -2  12   2   48.67   53.19
  -2  12   2  121.29   30.83
  -2  12   2   78.99   53.90
  -2  12   3   64.22   42.53
  -2  12   3  107.18   52.88
  -2  12   3   53.60   37.12
  -2  12   3  134.77   51.98
  -2  12   4   88.65   40.17
  -2  12   4  106.48   44.36
  -2  12   4   19.97   51.48
  -2  12   5  183.28   47.16
  -2  12   5   80.36   47.67
  -2  12   5   59.46   52.49
  -2  12   6  176.52   52.23
  -2  12   6  107.50   54.34
  -2  12   7   75.49   54.46
  -2  12   7  101.84   54.92
  -2  12   7  124.24   52.40
  -2  12   8   68.04   56.37
  -2  12   8   94.90   52.77
  -2  12   9   66.26   53.34
  -2  12  10  107.73   59.24
  -2  12  10   67.65   54.59
  -2  13   4   54.79   41.69
  -2  13   4  130.97   55.35
  -2  13   4   91.68   46.77
  -2  13   4   83.12   55.58
  -2  13   5  143.82   50.67
  -2  13   5   84.96   57.33
  -2  13   5  193.91   45.06
  -2  13   6  324.37   56.62
  -2  13   6  256.98   63.20
  -2  13   6  461.28   55.11
  -2  13   7  206.18   62.39
  -1 -13  -9  308.56   62.76
  -1 -13  -8  265.22   35.73
  -1 -13  -7  533.61   48.80
  -1 -13  -6  431.60   59.35
  -1 -13  -5  320.62   60.73
  -1 -12 -11  326.52   67.22
  -1 -12 -11  128.81   50.25
  -1 -12 -10  184.12   62.67
  -1 -12 -10  108.91   50.54
  -1 -12  -9  174.71   57.80
  -1 -12  -9  120.98   50.25
  -1 -12  -9   74.89   22.02
  -1 -12  -8  158.84   53.53
  -1 -12  -8  376.20   55.73
  -1 -12  -7  127.26   41.31
  -1 -12  -6   62.84   51.42
  -1 -12  -5  301.36   55.47
  -1 -11 -12   19.45   44.49
  -1 -11 -11  223.95   62.93
  -1 -11 -11   53.11   44.18
  -1 -11 -10  121.80   56.62
  -1 -11 -10   29.95   45.23
  -1 -11  -9   80.39   51.88
  -1 -11  -9   24.15   14.59
  -1 -11  -9   66.58   46.72
  -1 -11  -8   66.79   49.75
  -1 -11  -8   -4.63   48.17
  -1 -11  -7  117.76   48.15
  -1 -11  -7  115.10   32.89
  -1 -11  -6  342.01   52.12
  -1 -11  -6  244.36   51.61
  -1 -11  -6  250.53   47.95
  -1 -11  -5  212.12   50.74
  -1 -11  -5  220.17   52.76
  -1 -11  -4  154.93   54.34
  -1 -10 -13   21.60   28.43
  -1 -10 -13   60.77   36.40
  -1 -10 -12  161.41   40.74
  -1 -10 -11  485.63   62.46
  -1 -10 -11  270.96   43.12
  -1 -10 -10  420.03   52.44
  -1 -10 -10  527.88   58.60
  -1 -10  -9  200.75   49.07
  -1 -10  -9  313.01   50.66
  -1 -10  -9  346.29   51.04
  -1 -10  -8  333.61   47.74
  -1 -10  -8  357.25   47.58
  -1 -10  -7  254.47   27.23
  -1 -10  -7  289.31   46.04
  -1 -10  -6  415.10   41.97
  -1 -10  -6  558.41   48.97
  -1 -10  -5  721.21   49.48
  -1 -10  -5  593.72   49.88
  -1 -10  -4  375.98   46.70
  -1 -10  -3  442.45   48.47
  -1 -10  -3  412.11   52.97
  -1 -10  -2  499.87   56.71
  -1 -10  -1  251.69   57.04
  -1  -9 -13  115.82   29.81
  -1  -9 -13  145.03   27.05
  -1  -9 -12  185.67   29.82
  -1  -9 -12  139.37   34.79
  -1  -9 -10  201.28   46.99
  -1  -9 -10  303.69   53.60
  -1  -9 -10  345.64   53.69
  -1  -9  -9  373.69   47.90
  -1  -9  -9  516.86   50.21
  -1  -9  -9  481.81   50.86
  -1  -9  -8  304.93   44.48
  -1  -9  -8  233.09   19.61
  -1  -9  -8  511.66   45.64
  -1  -9  -8  424.59   44.66
  -1  -9  -7   70.60   40.81
  -1  -9  -6  125.99   40.66
  -1  -9  -6  189.05   29.70
  -1  -9  -5  208.65   41.14
  -1  -9  -5  315.20   39.47
  -1  -9  -4  376.56   42.53
  -1  -9  -3  240.01   40.46
  -1  -9  -2  231.24   46.98
  -1  -9  -1  135.37   48.67
  -1  -9   0   87.06   51.54
  -1  -9   1  203.94   58.26
  -1  -8 -12  120.81   26.12
  -1  -8 -12   64.75   29.52
  -1  -8 -11  114.11   26.43
  -1  -8 -10  101.23   42.98
  -1  -8 -10  172.27   50.32
  -1  -8  -9   88.70   40.97
  -1  -8  -9  156.28   44.43
  -1  -8  -9  182.81   46.34
  -1  -8  -8  199.32   41.07
  -1  -8  -7  246.31   39.30
  -1  -8  -6  216.43   22.65
  -1  -8  -6  228.27   36.44
  -1  -8  -5  372.46   37.56
  -1  -8  -4  271.24   37.16
  -1  -8  -3  219.10   37.05
  -1  -8  -2  232.44   36.21
  -1  -8   0  789.88   54.32
  -1  -8   1  274.43   50.54
  -1  -8   2  637.45   59.59
  -1  -8   3  644.03   62.21
  -1  -7 -12   25.80   18.42
  -1  -7 -11  177.75   25.29
  -1  -7 -10  263.31   24.99
  -1  -7 -10  325.48   43.85
  -1  -7  -9  614.75   52.51
  -1  -7  -9  578.19   44.79
  -1  -7  -8  310.70   38.66
  -1  -7  -8  364.19   41.23
  -1  -7  -8  428.46   41.94
  -1  -7  -7  380.92   36.02
  -1  -7  -7  293.66   18.02
  -1  -7  -7  527.98   36.54
  -1  -7  -7  519.20   37.16
  -1  -7  -6  781.72   42.78
  -1  -7  -6  852.07   37.84
  -1  -7  -5  783.24   40.92
  -1  -7  -4 1008.27   43.42
  -1  -7  -3 1309.00   48.51
  -1  -7  -2 1387.26   48.40
  -1  -7  -1  707.60   38.56
  -1  -7   1  540.65   46.83
  -1  -7   2 1206.27   60.91
  -1  -7   3 1416.69   68.28
  -1  -7   5   73.44   52.21
  -1  -7   6  170.81   54.36
  -1  -6 -10  287.20   25.15
  -1  -6 -10  346.94   42.50
  -1  -6  -9  349.44   24.37
  -1  -6  -9  377.96   40.25
  -1  -6  -8  556.42   39.67
  -1  -6  -8  668.55   45.24
  -1  -6  -7 1308.81   50.51
  -1  -6  -7 1457.23   50.55
  -1  -6  -7 1473.49   50.77
  -1  -6  -6 1296.26   48.85
  -1  -6  -5  519.00   34.77
  -1  -6  -4  394.55   32.46
  -1  -6  -3  889.66   39.17
  -1  -6  -2  730.98   36.31
  -1  -6  -1  366.67   29.39
  -1  -6   0  102.06   29.90
  -1  -6   0   93.79   26.78
  -1  -6   1  124.84   31.88
  -1  -6   2  180.38   34.86
  -1  -6   2  208.93   39.66
  -1  -6   3  217.61   43.44
  -1  -6   3  235.47   38.29
  -1  -6   5  149.62   48.62
  -1  -6   5  309.74   48.71
  -1  -6   6  103.99   48.34
  -1  -6   7  239.13   52.95
  -1  -6   7  190.64   62.93
  -1  -5  -9   60.15   34.34
  -1  -5  -9   54.65   20.98
  -1  -5  -8  116.85   33.24
  -1  -5  -7  606.79   36.18
  -1  -5  -5  217.88   28.85
  -1  -5  -5  130.23   12.09
  -1  -5  -4  274.51   28.17
  -1  -5  -4  224.92   18.81
  -1  -5  -4  310.25   25.75
  -1  -5  -3  118.10   24.23
  -1  -5  -3  142.64   22.62
  -1  -5  -2 1295.49   42.04
  -1  -5  -1 1247.96   40.53
  -1  -5  -1 1175.84   43.22
  -1  -5   0 1089.11   36.39
  -1  -5   0  989.94   40.53
  -1  -5   1  875.96   32.89
  -1  -5   1  849.05   38.91
  -1  -5   2  915.42   44.53
  -1  -5   2  839.79   40.76
  -1  -5   3 1666.67   58.02
  -1  -5   3 1574.33   54.14
  -1  -5   3 1573.45   57.45
  -1  -5   4 1461.90   58.99
  -1  -5   4 1448.24   59.83
  -1  -5   5  923.13   56.09
  -1  -5   6  285.52   50.08
  -1  -5   6  139.22   16.58
  -1  -5   6  220.67   45.56
  -1  -5   6  288.76   45.21
  -1  -5   7 1101.07   68.72
  -1  -5   7  713.17   29.57
  -1  -5   7  949.34   56.03
  -1  -5   8 1076.27   74.02
  -1  -5   8  730.50   32.58
  -1  -5   8 1069.20   60.24
  -1  -4  -9  126.87   19.43
  -1  -4  -9  196.40   33.24
  -1  -4  -8  562.05   35.79
  -1  -4  -7  850.96   29.27
  -1  -4  -7  923.99   39.34
  -1  -4  -6 1450.31   47.15
  -1  -4  -5 1196.33   39.94
  -1  -4  -5 1235.88   40.81
  -1  -4  -4  856.06   34.25
  -1  -4  -4  899.08   33.35
  -1  -4  -3  550.93   28.92
  -1  -4  -3  582.58   26.14
  -1  -4  -2 3087.87   74.95
  -1  -4  -2 3288.14   75.63
  -1  -4  -2 3283.64   73.65
  -1  -4  -1 5402.81  114.61
  -1  -4  -1 5233.86  112.23
  -1  -4  -1 5195.55  115.97
  -1  -4   0 1864.65   45.72
  -1  -4   0 1790.31   41.79
  -1  -4   0 1430.75   47.59
  -1  -4   1 1652.52   42.31
  -1  -4   1 1589.50   47.95
  -1  -4   2 1351.87   35.74
  -1  -4   2 1264.57   43.22
  -1  -4   2 1384.89   47.19
  -1  -4   3 2077.85   60.98
  -1  -4   3 1976.78   57.70
  -1  -4   3 1994.92   62.14
  -1  -4   4 1506.99   36.49
  -1  -4   4 1616.91   55.01
  -1  -4   4 1598.64   51.64
  -1  -4   4 1650.74   55.79
  -1  -4   4 1633.98   59.33
  -1  -4   5  800.45   28.00
  -1  -4   5  886.58   46.16
  -1  -4   5  780.80   50.87
  -1  -4   6  125.58   23.43
  -1  -4   6  133.17   45.58
  -1  -4   6  172.02   39.13
  -1  -4   6  110.29   36.50
  -1  -4   6   76.33   38.37
  -1  -4   7  192.22   52.28
  -1  -4   7  161.91   27.99
  -1  -4   7  166.50   50.13
  -1  -4   7  242.53   45.29
  -1  -4   7  240.36   41.99
  -1  -4   7  188.21   42.56
  -1  -4   8  424.81   34.14
  -1  -4   8  510.91   63.67
  -1  -4   8  509.83   54.41
  -1  -4   8  503.01   48.10
  -1  -4   8  410.43   48.92
  -1  -4   9   61.29   34.14
  -1  -4   9  157.09   66.93
  -1  -4   9  101.11   47.62
  -1  -3  -8  737.16   36.89
  -1  -3  -7 1195.28   34.44
  -1  -3  -7 1418.88   43.16
  -1  -3  -6 2923.38   71.99
  -1  -3  -6 2810.03   63.83
  -1  -3  -6 2912.12   70.43
  -1  -3  -5 1998.75   53.80
  -1  -3  -5 1966.29   52.44
  -1  -3  -4 1578.93   43.13
  -1  -3  -4 1427.00   41.26
  -1  -3  -3 1159.28   33.72
  -1  -3  -3 1048.24   34.12
  -1  -3  -2  803.42   29.21
  -1  -3  -2  873.78   27.13
  -1  -3  -2  774.67   28.53
  -1  -3  -1  848.43   29.89
  -1  -3  -1  898.54   29.78
  -1  -3  -1  897.53   26.41
  -1  -3   0  292.16   21.51
  -1  -3   0  273.38   19.64
  -1  -3   0  295.99   14.88
  -1  -3   1   60.78   20.36
  -1  -3   1   65.98   16.14
  -1  -3   2   45.67   23.36
  -1  -3   2   45.48   26.35
  -1  -3   2   32.95   14.48
  -1  -3   3  107.32   29.07
  -1  -3   3  140.58   26.55
  -1  -3   3  104.46   27.78
  -1  -3   3  111.98   12.99
  -1  -3   3  130.72   23.72
  -1  -3   4   35.36   26.53
  -1  -3   4   84.61   31.38
  -1  -3   4   62.57   29.11
  -1  -3   4  -16.62   32.70
  -1  -3   5   35.64   20.52
  -1  -3   5   55.24   32.50
  -1  -3   5  -23.41   37.44
  -1  -3   6  103.15   25.45
  -1  -3   6  123.94   36.54
  -1  -3   6   77.49   41.82
  -1  -3   6   96.77   31.01
  -1  -3   6   65.40   33.78
  -1  -3   7  218.99   48.58
  -1  -3   7  176.71   29.96
  -1  -3   7  122.84   45.69
  -1  -3   7  210.15   42.03
  -1  -3   7  185.51   35.70
  -1  -3   7  161.61   36.99
  -1  -3   8  421.39   53.59
  -1  -3   8  442.73   58.06
  -1  -3   8  409.91   35.94
  -1  -3   8  396.80   49.10
  -1  -3   8  390.97   42.82
  -1  -3   8  375.11   42.91
  -1  -3   9  400.75   39.15
  -1  -3   9  445.50   65.71
  -1  -3   9  481.55   55.62
  -1  -3   9  469.68   46.96
  -1  -3   9  442.78   46.90
  -1  -3  10  357.29   41.41
  -1  -3  10  400.43   69.01
  -1  -3  10  344.61   47.25
  -1  -2  -7  119.58   23.94
  -1  -2  -6  224.63   24.66
  -1  -2  -6  192.59   18.65
  -1  -2  -6  213.00   22.88
  -1  -2  -5  454.27   26.03
  -1  -2  -5  384.95   20.21
  -1  -2  -5  445.02   24.43
  -1  -2  -4  308.32   20.80
  -1  -2  -4  291.65   21.20
  -1  -2  -3 1365.31   37.59
  -1  -2  -3 1457.27   37.47
  -1  -2  -2  864.36   27.87
  -1  -2  -2  973.74   26.80
  -1  -2  -2  930.93   26.12
  -1  -2  -1  156.92   14.58
  -1  -2  -1  132.14   15.66
  -1  -2   0  575.53   19.50
  -1  -2   0  513.94   21.57
  -1  -2   1 1508.71   34.89
  -1  -2   1 1494.42   39.59
  -1  -2   1 1405.49   40.85
  -1  -2   2 1820.31   40.69
  -1  -2   2 1993.24   48.35
  -1  -2   2 2009.08   51.36
  -1  -2   2 1890.93   49.05
  -1  -2   3 1010.79   38.90
  -1  -2   3  968.37   33.26
  -1  -2   3 1003.68   27.47
  -1  -2   3  996.77   37.96
  -1  -2   4 2219.71   63.16
  -1  -2   4 2176.36   55.03
  -1  -2   4 2169.65   56.67
  -1  -2   4 2079.84   51.18
  -1  -2   4 2069.30   61.04
  -1  -2   5 2264.10   67.73
  -1  -2   5 2282.10   59.81
  -1  -2   5 2311.30   67.63
  -1  -2   6 1163.47   53.50
  -1  -2   6 1068.02   50.32
  -1  -2   6 1204.24   51.01
  -1  -2   6 1101.77   39.71
  -1  -2   7  416.00   49.50
  -1  -2   7  390.73   33.08
  -1  -2   7  366.11   41.92
  -1  -2   7  371.90   34.58
  -1  -2   7  386.86   36.94
  -1  -2   7  403.77   43.55
  -1  -2   8 1335.53   62.67
  -1  -2   8 1301.99   61.42
  -1  -2   8 1190.01   51.04
  -1  -2   8 1266.92   51.63
  -1  -2   8 1406.14   67.33
  -1  -2   9 1449.68   68.30
  -1  -2   9 1423.89   54.63
  -1  -2   9 1574.85   75.54
  -1  -2   9 1360.79   56.22
  -1  -2   9 1373.69   56.32
  -1  -2  10  787.10   48.17
  -1  -2  10  966.33   72.10
  -1  -2  10  772.18   48.32
  -1  -2  10  789.96   48.49
  -1  -1  -8  265.25   24.66
  -1  -1  -6 1970.16   49.17
  -1  -1  -6 1967.66   48.48
  -1  -1  -5 3801.33   81.04
  -1  -1  -5 3607.67   80.76
  -1  -1  -5 3679.56   83.59
  -1  -1  -4 5397.87  115.91
  -1  -1  -4 5652.13  117.34
  -1  -1  -3 1435.93   37.30
  -1  -1  -3 1559.98   36.72
  -1  -1  -2  877.27   22.63
  -1  -1  -2  838.28   23.48
  -1  -1  -1 5056.62  104.98
  -1  -1  -1 5238.63  105.60
  -1  -1   0 4678.39   96.98
  -1  -1   1 1479.08   32.10
  -1  -1   1 1441.10   35.86
  -1  -1   1 1548.10   36.11
  -1  -1   1 1448.82   36.97
  -1  -1   2 2070.85   45.98
  -1  -1   2 2121.17   49.47
  -1  -1   2 2108.04   52.59
  -1  -1   2 2040.07   51.52
  -1  -1   3 1928.62   50.91
  -1  -1   3 1924.75   47.42
  -1  -1   3 1868.91   45.28
  -1  -1   4 1827.75   53.29
  -1  -1   4 1865.29   53.45
  -1  -1   4 1765.24   47.44
  -1  -1   4 1752.98   46.67
  -1  -1   4 1785.58   45.83
  -1  -1   5 1255.47   46.06
  -1  -1   5 1150.09   33.31
  -1  -1   5 1209.70   38.10
  -1  -1   5 1117.11   38.35
  -1  -1   5 1212.21   39.05
  -1  -1   5 1207.64   47.82
  -1  -1   6  817.86   42.79
  -1  -1   6  810.47   46.80
  -1  -1   7  393.61   46.39
  -1  -1   7  388.85   31.20
  -1  -1   7  381.38   30.99
  -1  -1   7  439.87   40.24
  -1  -1   8  297.08   48.64
  -1  -1   8  314.58   44.45
  -1  -1   8  323.57   37.50
  -1  -1   8  257.07   42.39
  -1  -1   8  331.27   33.82
  -1  -1   8  301.61   32.48
  -1  -1   9  212.11   52.91
  -1  -1   9  190.97   47.23
  -1  -1   9  150.12   45.72
  -1  -1   9  142.09   33.62
  -1  -1   9  160.35   33.26
  -1  -1   9  167.03   38.48
  -1  -1  10    7.55   48.71
  -1  -1  10   58.69   36.44
  -1  -1  10   73.59   31.37
  -1  -1  10   91.09   41.54
  -1  -1  11   63.71   37.72
  -1  -1  11   76.46   29.99
  -1  -1  11   93.97   43.67
  -1   0  -7  999.92   46.56
  -1   0  -6 2064.21   54.61
  -1   0  -6 2209.31   63.36
  -1   0  -5 2977.94   67.65
  -1   0  -5 3087.83   69.35
  -1   0  -5 2961.92   76.13
  -1   0  -5 2878.22   64.11
  -1   0  -4 3773.24   80.96
  -1   0  -4 3646.01   79.67
  -1   0  -4 3583.84   77.57
  -1   0  -4 3807.91   86.35
  -1   0  -3 2582.62   58.54
  -1   0  -3 2865.13   64.71
  -1   0  -3 2906.11   61.67
  -1   0  -2  262.40   16.20
  -1   0   0    6.57    4.76
  -1   0   1   50.89    8.87
  -1   0   1   48.16    9.77
  -1   0   2  568.83   22.75
  -1   0   2  559.45   20.26
  -1   0   2  554.21   22.55
  -1   0   3  540.97   28.42
  -1   0   3  481.11   22.96
  -1   0   3  470.70   22.25
  -1   0   3  491.76   23.56
  -1   0   4  122.20   26.59
  -1   0   4  113.42   21.80
  -1   0   4  105.66   15.59
  -1   0   4  165.60   22.41
  -1   0   5  620.28   33.54
  -1   0   5  734.19   22.63
  -1   0   5  664.01   26.78
  -1   0   5  535.11   24.59
  -1   0   5  731.06   30.92
  -1   0   5  746.18   37.86
  -1   0   6  343.16   36.49
  -1   0   6  236.73   30.81
  -1   0   6  344.95   29.49
  -1   0   7   62.83   36.91
  -1   0   7   85.06   17.99
  -1   0   7   70.44   31.64
  -1   0   7   60.34   24.89
  -1   0   7   79.66   22.18
  -1   0   8   20.44   39.24
  -1   0   8   30.04   37.79
  -1   0   8   28.16   16.24
  -1   0   8   27.12   26.10
  -1   0   8   67.79   25.25
  -1   0   8   38.09   23.41
  -1   0   9  741.62   51.48
  -1   0   9  679.68   35.63
  -1   0   9  575.34   29.75
  -1   0   9  694.04   45.38
  -1   0   9  688.03   54.31
  -1   0  10  681.32   39.97
  -1   0  10  821.56   32.07
  -1   0  10  837.98   51.39
  -1   0  11  360.49   36.80
  -1   0  11  296.17   20.10
  -1   1  -9  317.47   48.94
  -1   1  -8   79.93   39.74
  -1   1  -7   51.46   33.87
  -1   1  -6   11.93   27.89
  -1   1  -6   -1.94   24.86
  -1   1  -5   17.07   24.92
  -1   1  -5   16.42   24.56
  -1   1  -4   81.19   15.78
  -1   1  -4  160.28   23.76
  -1   1  -4  128.66   14.87
  -1   1  -4  193.98   24.87
  -1   1  -3  144.75   14.88
  -1   1  -3  196.83   22.08
  -1   1  -3  161.33   21.79
  -1   1  -2   79.80   18.76
  -1   1  -2   84.52   18.00
  -1   1  -1  362.15   16.22
  -1   1  -1  345.54   15.81
  -1   1   0 2921.20   60.87
  -1   1   1 3626.57   78.30
  -1   1   1 3957.56   78.66
  -1   1   2  161.78   16.02
  -1   1   2  171.01   17.04
  -1   1   2  163.43   15.49
  -1   1   2  182.44   17.93
  -1   1   3  658.79   26.66
  -1   1   3  589.81   24.20
  -1   1   3  592.88   24.37
  -1   1   4 1618.96   40.86
  -1   1   4 1755.06   47.51
  -1   1   4 1646.34   45.77
  -1   1   4 1714.74   44.81
  -1   1   5 3895.79   94.18
  -1   1   5 4056.21   88.23
  -1   1   5 4093.87   88.75
  -1   1   5 4142.18   92.35
  -1   1   5 4075.88   93.86
  -1   1   6 1512.94   49.57
  -1   1   6 1513.00   50.56
  -1   1   6 1538.60   44.65
  -1   1   6 1509.29   46.56
  -1   1   7 1393.72   39.13
  -1   1   7 1346.82   48.59
  -1   1   7 1392.89   49.19
  -1   1   7 1325.45   45.83
  -1   1   7 1103.34   29.04
  -1   1   8  357.45   26.79
  -1   1   8  461.22   40.72
  -1   1   8  368.39   39.11
  -1   1   9  790.59   33.05
  -1   1   9  802.42   40.00
  -1   1   9  716.13   34.75
  -1   1   9  839.49   52.63
  -1   1  10  564.38   33.82
  -1   1  10  549.23   29.33
  -1   1  11  154.16   31.48
  -1   1  11  348.60   48.32
  -1   1  12   67.27   30.13
  -1   1  12  178.11   59.01
  -1   1  12  212.84   50.16
  -1   2 -10  358.74   56.76
  -1   2  -9  829.90   59.17
  -1   2  -8  640.05   50.24
  -1   2  -8  567.01   38.53
  -1   2  -7  306.26   39.35
  -1   2  -7  205.78   32.19
  -1   2  -6 1311.91   52.83
  -1   2  -5 1898.49   58.11
  -1   2  -5 1786.43   48.10
  -1   2  -4 1014.34   40.00
  -1   2  -4  933.53   32.04
  -1   2  -4 1121.01   39.42
  -1   2  -3 2332.52   62.03
  -1   2  -3 2389.28   56.41
  -1   2  -3 2420.80   60.89
  -1   2  -2 3054.17   70.46
  -1   2  -2 3037.01   70.72
  -1   2  -2 2903.88   71.73
  -1   2  -2 3000.76   67.80
  -1   2  -1 2524.54   58.01
  -1   2  -1 2485.41   58.65
  -1   2   0 2360.61   51.09
  -1   2   1 2523.91   55.73
  -1   2   1 2525.55   57.64
  -1   2   1 2575.03   57.87
  -1   2   2 1000.21   27.61
  -1   2   2  969.69   28.36
  -1   2   3 3652.92   82.04
  -1   2   3 3748.48   82.20
  -1   2   3 3662.40   81.43
  -1   2   3 3778.66   82.06
  -1   2   4  824.28   32.29
  -1   2   4  898.33   30.88
  -1   2   4  887.42   30.49
  -1   2   4  846.76   33.56
  -1   2   4  888.32   32.94
  -1   2   5  579.80   29.10
  -1   2   5  481.59   32.69
  -1   2   5  494.46   25.68
  -1   2   5  577.44   28.78
  -1   2   5  507.80   31.77
  -1   2   5  540.07   30.89
  -1   2   6  493.21   38.18
  -1   2   6  568.72   32.40
  -1   2   6  574.89   26.88
  -1   2   6  568.79   33.05
  -1   2   6  551.78   29.32
  -1   2   6  607.25   33.14
  -1   2   7  777.37   45.58
  -1   2   7  903.75   40.38
  -1   2   7  842.55   41.99
  -1   2   7  752.70   35.76
  -1   2   7  880.33   40.34
  -1   2   8  448.40   37.56
  -1   2   8  401.86   30.91
  -1   2   8  390.08   38.30
  -1   2   8  327.70   45.62
  -1   2   8  302.02   37.73
  -1   2   9  145.94   37.97
  -1   2   9   18.99   48.96
  -1   2   9  113.39   28.55
  -1   2  10  106.01   43.86
  -1   2  10   47.59   31.29
  -1   2  10  141.60   34.20
  -1   2  10   98.64   56.77
  -1   2  11   59.67   27.86
  -1   2  11  117.06   31.35
  -1   2  11  105.79   45.28
  -1   2  12  118.10   56.69
  -1   2  12  110.55   27.34
  -1   3 -10 1087.66   71.40
  -1   3  -9 1329.80   70.08
  -1   3  -8 1620.47   59.78
  -1   3  -8 1698.34   71.71
  -1   3  -7  635.64   48.44
  -1   3  -6  612.22   42.85
  -1   3  -5 1386.25   44.53
  -1   3  -5 1378.32   52.89
  -1   3  -4 1074.56   38.38
  -1   3  -4 1085.68   43.53
  -1   3  -3  947.90   33.07
  -1   3  -3  969.79   38.44
  -1   3  -3  810.97   24.71
  -1   3  -2  617.51   30.26
  -1   3  -2  624.93   28.67
  -1   3  -2  608.66   29.71
  -1   3  -2  584.11   22.35
  -1   3  -1  112.27   20.58
  -1   3  -1  142.44   22.60
  -1   3  -1  128.11   20.98
  -1   3  -1  153.84   19.69
  -1   3   0  306.72   21.49
  -1   3   0  309.30   16.37
  -1   3   0  345.48   21.25
  -1   3   1 2710.22   61.70
  -1   3   1 2529.25   58.17
  -1   3   2  173.34   18.95
  -1   3   2  315.06   22.19
  -1   3   3  224.52   22.21
  -1   3   3  242.55   18.70
  -1   3   4  444.11   24.98
  -1   3   4  439.16   27.03
  -1   3   4  453.77   27.08
  -1   3   5  682.78   33.00
  -1   3   5  784.11   33.04
  -1   3   5  789.36   36.05
  -1   3   6 1946.01   55.44
  -1   3   6 1927.74   55.72
  -1   3   6 2032.71   51.82
  -1   3   6 1858.15   51.85
  -1   3   6 1633.66   52.92
  -1   3   6 1669.47   54.30
  -1   3   7  657.37   38.42
  -1   3   7  713.38   42.68
  -1   3   7  689.80   32.93
  -1   3   7  639.74   34.88
  -1   3   7  706.01   40.66
  -1   3   7  673.00   36.16
  -1   3   8  149.29   33.51
  -1   3   8  133.43   41.73
  -1   3   8  122.11   36.93
  -1   3   8  166.38   29.93
  -1   3   8  203.78   40.47
  -1   3   9   94.98   36.72
  -1   3   9   74.75   53.07
  -1   3   9  117.04   32.81
  -1   3   9   81.91   39.42
  -1   3   9  137.44   28.59
  -1   3   9  135.91   47.44
  -1   3  10  530.40   41.45
  -1   3  10  609.23   39.75
  -1   3  10  388.08   48.56
  -1   3  10  537.90   49.43
  -1   3  10  609.12   58.96
  -1   3  11  787.34   49.29
  -1   3  11  811.36   45.52
  -1   3  11  734.17   56.86
  -1   3  12  297.11   30.14
  -1   3  12  379.88   40.69
  -1   3  12  488.93   57.39
  -1   3  13    3.19   26.71
  -1   3  13  166.11   60.43
  -1   3  13  134.65   33.70
  -1   4 -10  194.97   60.44
  -1   4  -9   63.46   53.25
  -1   4  -9   71.79   47.59
  -1   4  -8   12.20   47.44
  -1   4  -8   30.74   46.66
  -1   4  -7  194.46   46.63
  -1   4  -6  110.55   39.92
  -1   4  -6   95.47   32.23
  -1   4  -5  151.35   35.97
  -1   4  -4  566.80   38.42
  -1   4  -4  545.71   35.12
  -1   4  -3  867.89   39.39
  -1   4  -3  860.43   37.72
  -1   4  -3  823.58   40.04
  -1   4  -2  262.84   27.52
  -1   4  -2  234.71   27.25
  -1   4  -2  266.62   28.95
  -1   4  -2  250.30   20.99
  -1   4  -1  105.96   20.59
  -1   4  -1  140.12   24.97
  -1   4  -1  131.03   25.30
  -1   4  -1  162.41   23.92
  -1   4   0 1166.25   36.19
  -1   4   0 1178.79   30.84
  -1   4   0 1122.16   37.33
  -1   4   1 3005.07   68.78
  -1   4   1 2750.21   63.62
  -1   4   2 1937.88   51.65
  -1   4   2 1842.97   47.53
  -1   4   3  772.43   31.47
  -1   4   3  802.04   30.47
  -1   4   5  821.00   35.51
  -1   4   5  760.19   35.87
  -1   4   5  810.54   31.67
  -1   4   6 3242.17   78.98
  -1   4   6 3219.23   79.70
  -1   4   6 3110.46   79.51
  -1   4   6 3220.85   80.44
  -1   4   7 1170.80   47.50
  -1   4   7 1137.71   43.30
  -1   4   7 1075.11   43.32
  -1   4   7 1139.82   47.40
  -1   4   7 1219.97   48.10
  -1   4   8  841.74   44.94
  -1   4   8  888.19   47.69
  -1   4   8  790.65   41.83
  -1   4   8  809.38   45.54
  -1   4   9  569.44   50.27
  -1   4   9  547.93   43.61
  -1   4   9  518.78   39.65
  -1   4   9  484.02   45.39
  -1   4   9  480.08   39.53
  -1   4   9  653.26   48.08
  -1   4  10  528.95   42.29
  -1   4  10  513.89   49.42
  -1   4  10  598.58   50.90
  -1   4  10  515.42   48.37
  -1   4  10  653.20   60.08
  -1   4  11  383.29   43.73
  -1   4  11  314.29   41.86
  -1   4  11  362.17   52.46
  -1   4  11  304.99   50.96
  -1   4  11  234.26   34.98
  -1   4  11  410.46   62.41
  -1   4  12  338.77   46.86
  -1   4  12  384.58   45.21
  -1   4  12  379.13   55.64
  -1   4  13  129.10   27.97
  -1   4  13  201.54   59.18
  -1   4  13  113.12   42.56
  -1   5  -9  396.12   56.92
  -1   5  -9  381.30   61.85
  -1   5  -8  719.06   63.32
  -1   5  -7  471.83   54.85
  -1   5  -6  304.91   41.17
  -1   5  -6  342.26   49.04
  -1   5  -5  735.80   49.82
  -1   5  -4 1674.46   53.84
  -1   5  -4 1569.50   57.69
  -1   5  -4 1328.07   37.06
  -1   5  -3 2017.16   63.20
  -1   5  -3 2099.43   61.68
  -1   5  -3 1813.84   62.59
  -1   5  -2 1645.63   53.37
  -1   5  -2 1807.55   52.55
  -1   5  -2 1535.06   53.44
  -1   5  -2 1540.24   44.56
  -1   5  -1 1170.71   43.57
  -1   5  -1 1370.99   39.89
  -1   5  -1 1277.63   44.79
  -1   5  -1 1187.80   45.08
  -1   5   0  672.51   33.75
  -1   5   0  659.73   25.08
  -1   5   0  663.03   34.02
  -1   5   0  653.51   33.02
  -1   5   1 2969.80   72.50
  -1   5   1 2873.79   66.68
  -1   5   2 2257.79   61.26
  -1   5   2 2225.36   55.07
  -1   5   3  829.92   33.09
  -1   5   4 1568.02   47.57
  -1   5   5  846.60   37.80
  -1   5   5  811.39   37.32
  -1   5   5  729.72   33.93
  -1   5   6  636.43   36.53
  -1   5   6  648.64   36.53
  -1   5   6  572.23   31.30
  -1   5   6  521.00   28.76
  -1   5   7  312.88   31.81
  -1   5   7  345.15   34.02
  -1   5   7  346.08   36.63
  -1   5   8  360.85   36.97
  -1   5   8  409.41   41.33
  -1   5   8  496.40   42.82
  -1   5   8  365.47   36.21
  -1   5   9  462.66   45.51
  -1   5   9  444.78   39.31
  -1   5   9  555.07   46.72
  -1   5  10  329.19   42.45
  -1   5  10  325.60   42.77
  -1   5  10  299.81   49.17
  -1   5  10  364.39   45.39
  -1   5  10  411.82   51.67
  -1   5  10  439.82   50.06
  -1   5  11  186.30   43.26
  -1   5  11   67.87   49.63
  -1   5  11  172.71   47.80
  -1   5  11  230.17   57.62
  -1   5  12  146.52   46.89
  -1   5  12   94.22   34.04
  -1   5  12  202.09   44.91
  -1   5  13  241.07   49.47
  -1   5  13  124.13   47.17
  -1   6  -8  468.06   62.86
  -1   6  -7  618.57   61.35
  -1   6  -6  442.77   49.34
  -1   6  -6  481.80   54.58
  -1   6  -5  865.26   56.75
  -1   6  -4  900.80   51.97
  -1   6  -4  656.45   30.17
  -1   6  -3 1123.06   51.34
  -1   6  -3 1083.94   48.53
  -1   6  -3 1088.19   52.22
  -1   6  -3  954.77   36.34
  -1   6  -2  778.88   42.16
  -1   6  -2  688.19   40.55
  -1   6  -2  611.67   42.87
  -1   6  -1  686.55   37.37
  -1   6  -1  624.06   32.85
  -1   6  -1  626.22   39.72
  -1   6  -1  633.59   38.20
  -1   6   0  674.56   32.76
  -1   6   0  598.86   27.80
  -1   6   0  589.83   36.58
  -1   6   0  654.91   37.18
  -1   6   1  401.93   30.37
  -1   6   1  388.31   23.54
  -1   6   2  653.34   34.93
  -1   6   2  583.92   30.70
  -1   6   4  442.94   31.14
  -1   6   4  486.67   31.09
  -1   6   5  357.49   31.82
  -1   6   5  349.54   33.92
  -1   6   6  249.72   34.30
  -1   6   7  455.09   34.23
  -1   6   7  536.62   38.97
  -1   6   7  429.89   39.60
  -1   6   8  181.78   35.46
  -1   6   8   76.34   38.09
  -1   6   8  135.78   33.29
  -1   6   8  121.71   29.48
  -1   6   9  132.23   37.73
  -1   6   9  194.99   39.36
  -1   6   9  116.82   41.75
  -1   6  10  105.57   46.23
  -1   6  10  149.28   39.66
  -1   6  11   49.60   43.07
  -1   6  11  -27.33   50.05
  -1   6  11   58.31   43.42
  -1   6  11   64.47   45.07
  -1   6  12  154.98   46.16
  -1   6  13   58.66   48.28
  -1   6  13   76.49   34.82
  -1   6  13  166.59   48.73
  -1   7  -7  116.27   58.41
  -1   7  -6  115.79   49.64
  -1   7  -6  154.15   55.38
  -1   7  -5  182.12   50.48
  -1   7  -5  228.34   53.94
  -1   7  -4  188.76   46.52
  -1   7  -4  125.66   26.91
  -1   7  -3  147.75   40.27
  -1   7  -3  218.65   43.34
  -1   7  -3  145.87   41.99
  -1   7  -3  140.04   28.12
  -1   7  -2  242.97   40.06
  -1   7  -2  174.57   40.85
  -1   7  -2  232.20   39.77
  -1   7  -2  197.90   31.53
  -1   7  -1  414.70   37.21
  -1   7  -1  299.24   38.80
  -1   7  -1  351.91   24.11
  -1   7   0  203.96   34.79
  -1   7   0  238.57   31.93
  -1   7   0  192.19   34.85
  -1   7   0  241.77   33.34
  -1   7   1  509.47   35.85
  -1   7   1  496.41   30.03
  -1   7   1  482.88   38.76
  -1   7   1  414.66   34.56
  -1   7   2  421.51   33.95
  -1   7   2  465.87   30.27
  -1   7   2  471.14   36.98
  -1   7   2  421.24   29.86
  -1   7   3  620.54   34.25
  -1   7   3  677.77   39.74
  -1   7   3  583.93   33.71
  -1   7   4  490.30   35.10
  -1   7   4  585.00   39.34
  -1   7   4  437.81   33.63
  -1   7   5  428.72   34.86
  -1   7   5  473.64   36.10
  -1   7   5  465.65   36.63
  -1   7   6  258.73   33.44
  -1   7   6  308.95   35.14
  -1   7   6  317.49   36.73
  -1   7   7  323.92   39.07
  -1   7   7  376.30   40.12
  -1   7   7  269.99   34.64
  -1   7   8  304.04   41.12
  -1   7   8  346.63   41.74
  -1   7   8  308.41   37.52
  -1   7   8  283.35   36.46
  -1   7   9  317.39   43.29
  -1   7   9  340.46   45.42
  -1   7   9  213.34   34.44
  -1   7   9  322.72   39.46
  -1   7  10  404.02   49.97
  -1   7  10  436.02   45.14
  -1   7  10  350.65   37.24
  -1   7  11  136.78   42.73
  -1   7  11  262.80   40.51
  -1   7  11  167.44   47.23
  -1   7  12  113.53   46.92
  -1   7  12  175.45   48.30
  -1   7  13  480.82   50.92
  -1   7  13  263.99   51.62
  -1   8  -6  199.37   55.38
  -1   8  -6  163.89   59.84
  -1   8  -5  144.89   53.76
  -1   8  -5  138.40   55.32
  -1   8  -4  310.38   53.87
  -1   8  -4  227.11   31.12
  -1   8  -3  797.22   55.03
  -1   8  -3  725.97   54.04
  -1   8  -3  754.14   57.52
  -1   8  -3  660.78   38.36
  -1   8  -2  431.85   45.41
  -1   8  -2  359.37   46.56
  -1   8  -2  353.72   48.39
  -1   8  -2  351.78   36.08
  -1   8  -1  427.35   43.27
  -1   8  -1  373.15   44.39
  -1   8  -1  341.39   45.72
  -1   8  -1  361.46   37.88
  -1   8   0  802.55   45.73
  -1   8   0  764.90   34.82
  -1   8   0  853.20   48.39
  -1   8   0  767.55   48.64
  -1   8   1  575.00   41.74
  -1   8   1  541.35   28.81
  -1   8   1  556.25   41.23
  -1   8   1  550.34   43.28
  -1   8   2  845.34   40.03
  -1   8   2  736.95   44.96
  -1   8   2  839.94   45.54
  -1   8   3  752.21   43.59
  -1   8   3  783.34   39.26
  -1   8   3  740.29   45.34
  -1   8   4  711.68   43.35
  -1   8   4  640.24   40.82
  -1   8   4  709.66   44.98
  -1   8   4  619.91   38.03
  -1   8   5  615.87   40.32
  -1   8   5  663.62   44.41
  -1   8   5  663.65   41.27
  -1   8   6  548.97   41.50
  -1   8   6  558.04   43.75
  -1   8   6  705.87   42.99
  -1   8   7  483.19   42.81
  -1   8   7  332.94   43.37
  -1   8   8  288.34   39.52
  -1   8   8  335.43   45.75
  -1   8   8  336.88   45.15
  -1   8   9  383.26   48.19
  -1   8   9  463.81   49.40
  -1   8   9  417.69   44.51
  -1   8   9  605.10   39.07
  -1   8  10  385.08   49.37
  -1   8  10  363.82   45.89
  -1   8  10  338.88   41.96
  -1   8  10  400.93   51.78
  -1   8  11   19.22   39.31
  -1   8  11  131.02   46.06
  -1   8  12   93.00   47.56
  -1   8  13   17.17   44.85
  -1   9  -5  331.68   61.64
  -1   9  -5  394.23   64.85
  -1   9  -4  472.85   60.74
  -1   9  -4  484.71   61.72
  -1   9  -4  354.03   34.32
  -1   9  -3  308.74   55.64
  -1   9  -3  225.12   37.25
  -1   9  -2  359.91   52.23
  -1   9  -2  367.87   54.38
  -1   9  -2  330.33   39.35
  -1   9  -1  390.37   46.49
  -1   9  -1  389.93   48.74
  -1   9  -1  375.87   51.36
  -1   9  -1  293.34   41.19
  -1   9   0  649.24   46.36
  -1   9   0  540.69   44.70
  -1   9   0  521.50   34.18
  -1   9   0  584.32   48.86
  -1   9   0  557.50   51.19
  -1   9   1  446.26   34.43
  -1   9   1  460.40   28.91
  -1   9   1  509.54   47.39
  -1   9   1  493.36   45.90
  -1   9   2  321.56   44.79
  -1   9   2  255.41   29.37
  -1   9   2  182.10   40.55
  -1   9   2  255.48   39.63
  -1   9   3  130.74   39.08
  -1   9   3  210.27   42.21
  -1   9   3  160.16   32.92
  -1   9   4  103.06   38.41
  -1   9   4  213.67   36.17
  -1   9   4  229.45   43.71
  -1   9   5  261.09   43.02
  -1   9   5  297.89   39.71
  -1   9   5  357.76   46.10
  -1   9   6  350.08   42.84
  -1   9   6  418.71   47.15
  -1   9   6  375.46   44.09
  -1   9   7  133.34   40.07
  -1   9   7  169.19   44.34
  -1   9   7   92.55   43.00
  -1   9   8  214.36   42.48
  -1   9   8  234.74   45.76
  -1   9   8   94.63   46.19
  -1   9   9   32.98   40.56
  -1   9   9   32.70   46.43
  -1   9   9   -8.40   45.73
  -1   9  10   70.95   43.82
  -1   9  10   68.18   48.16
  -1   9  10   31.47   48.91
  -1   9  11   58.56   46.22
  -1   9  11  293.80   39.91
  -1   9  12   20.44   48.15
  -1   9  12  123.87   42.19
  -1   9  13   84.67   51.97
  -1   9  13  -22.79   44.62
  -1  10  -3  133.69   58.06
  -1  10  -3  123.07   38.04
  -1  10  -2  122.66   39.65
  -1  10  -2   82.72   53.69
  -1  10  -2  115.50   53.08
  -1  10  -1  180.19   40.82
  -1  10  -1  100.88   52.62
  -1  10  -1  116.12   50.09
  -1  10   0  169.70   44.15
  -1  10   0  122.20   50.42
  -1  10   0  163.16   48.09
  -1  10   1  158.83   44.56
  -1  10   1  104.07   32.74
  -1  10   1  134.22   46.37
  -1  10   1  178.52   41.46
  -1  10   1  116.10   46.25
  -1  10   2   76.69   30.14
  -1  10   2   90.84   34.62
  -1  10   2   46.21   44.04
  -1  10   2  119.29   42.73
  -1  10   3   10.51   41.05
  -1  10   3   50.77   44.99
  -1  10   3   46.45   31.97
  -1  10   4   35.58   42.83
  -1  10   4   34.40   46.08
  -1  10   4  120.26   37.73
  -1  10   5  140.74   44.90
  -1  10   5  198.50   41.71
  -1  10   5  215.43   49.00
  -1  10   5  218.96   43.54
  -1  10   6  216.51   46.67
  -1  10   6  279.40   43.93
  -1  10   6  297.94   50.40
  -1  10   7   92.66   44.16
  -1  10   7  112.46   43.57
  -1  10   7   33.85   45.39
  -1  10   8   48.71   42.37
  -1  10   8  119.43   47.61
  -1  10   8   50.50   46.45
  -1  10   9   84.41   44.84
  -1  10   9   27.82   48.35
  -1  10  10  152.31   48.33
  -1  10  11  332.99   52.27
  -1  10  12   82.48   48.14
  -1  10  12  113.28   51.63
  -1  11  -2  121.81   59.77
  -1  11  -2  162.82   43.27
  -1  11  -1  294.25   57.46
  -1  11  -1  269.55   59.76
  -1  11  -1  247.83   44.97
  -1  11   0  377.36   55.92
  -1  11   0  279.80   57.50
  -1  11   0  285.02   48.29
  -1  11   1  344.07   49.78
  -1  11   1  301.37   54.35
  -1  11   1  376.51   55.21
  -1  11   2  283.74   51.21
  -1  11   2  274.78   39.65
  -1  11   2  267.83   51.25
  -1  11   2  314.01   51.19
  -1  11   2  207.73   30.59
  -1  11   3  194.45   34.13
  -1  11   3  170.47   39.45
  -1  11   3  230.71   50.72
  -1  11   3  249.39   46.85
  -1  11   4  168.15   43.48
  -1  11   4  189.68   48.31
  -1  11   4  258.42   52.52
  -1  11   4  195.14   41.34
  -1  11   5  352.78   52.47
  -1  11   5  361.49   55.81
  -1  11   5  372.83   46.49
  -1  11   6  323.39   52.66
  -1  11   6  397.40   48.50
  -1  11   6  361.14   56.18
  -1  11   6  416.64   50.62
  -1  11   7  309.58   53.40
  -1  11   7  285.93   49.19
  -1  11   7  384.32   50.75
  -1  11   8  115.30   48.51
  -1  11   9   68.81   49.68
  -1  11  10  134.81   53.52
  -1  11  10  185.95   51.34
  -1  11  11  250.53   54.74
  -1  11  11  267.02   53.79
  -1  12   0  235.11   48.74
  -1  12   0   90.04   59.55
  -1  12   0  198.07   57.78
  -1  12   1  238.23   50.72
  -1  12   1  266.91   58.37
  -1  12   1  356.99   60.14
  -1  12   2  369.24   54.68
  -1  12   2  384.08   57.56
  -1  12   2  315.72   56.46
  -1  12   3  201.46   53.52
  -1  12   3  133.31   34.62
  -1  12   3  136.85   50.59
  -1  12   3  203.53   53.81
  -1  12   3  105.30   41.32
  -1  12   4   33.82   42.43
  -1  12   4   69.31   51.24
  -1  12   4   74.43   36.91
  -1  12   5  108.09   46.16
  -1  12   5   43.16   50.97
  -1  12   5   61.61   44.67
  -1  12   6   80.97   54.65
  -1  12   6  216.24   50.72
  -1  12   7   50.16   54.41
  -1  12   7   34.98   52.76
  -1  12   8   38.69   50.05
  -1  12   8    0.41   51.74
  -1  12   9   27.56   51.81
  -1  12  10   70.12   52.88
  -1  12  10   34.85   55.83
  -1  13   3   35.89   55.34
  -1  13   3   69.74   31.29
  -1  13   3  132.08   55.99
  -1  13   4  -32.72   36.37
  -1  13   4   59.68   52.10
  -1  13   4   39.58   43.42
  -1  13   4   33.66   54.98
  -1  13   5   17.80   46.54
  -1  13   5   20.34   54.29
  -1  13   5   28.49   41.99
  -1  13   6  152.61   51.74
  -1  13   6   42.93   56.04
  -1  13   6  139.02   51.33
  -1  13   7  100.77   53.41
  -1  13   7  104.55   57.95
  -1  13   7  149.93   55.07
   0 -13  -9   87.18   62.86
   0 -13  -8    3.73   38.16
   0 -13  -7  255.04   48.29
   0 -13  -6  118.17   58.89
   0 -13  -5  125.92   62.89
   0 -13  -4  291.15   66.54
   0 -12 -11  133.91   51.17
   0 -12 -11  276.73   69.37
   0 -12 -10   83.06   25.00
   0 -12 -10   93.83   50.71
   0 -12  -9  114.24   30.10
   0 -12  -9   79.61   51.69
   0 -12  -9  209.88   59.45
   0 -12  -8  104.84   52.81
   0 -12  -8  332.50   56.74
   0 -12  -7  311.90   42.53
   0 -12  -7  211.68   56.63
   0 -12  -6  346.07   54.69
   0 -12  -5  406.01   61.47
   0 -12  -4  427.81   62.03
   0 -11 -12  213.39   44.51
   0 -11 -11  156.93   47.07
   0 -11 -11  295.79   65.05
   0 -11 -10  112.43   24.53
   0 -11 -10   89.08   47.09
   0 -11 -10   97.27   60.20
   0 -11  -9   94.59   27.40
   0 -11  -9   93.80   47.09
   0 -11  -9  143.92   56.01
   0 -11  -8  117.33   48.20
   0 -11  -8  270.33   52.72
   0 -11  -7  171.06   35.68
   0 -11  -6  152.41   46.73
   0 -11  -5  177.57   53.17
   0 -11  -5  137.88   51.65
   0 -11  -4   71.54   54.34
   0 -11  -3  134.76   56.83
   0 -10 -12   20.24   36.16
   0 -10 -11   62.84   40.60
   0 -10 -10   59.38   41.50
   0 -10 -10  124.54   55.96
   0 -10  -9   39.38   26.09
   0 -10  -9  146.94   52.88
   0 -10  -9   32.18   40.95
   0 -10  -9   94.76   51.13
   0 -10  -8  103.25   47.08
   0 -10  -8   -2.86   44.60
   0 -10  -8   60.13   47.72
   0 -10  -7   63.79   29.79
   0 -10  -6  410.41   40.66
   0 -10  -5  181.47   47.99
   0 -10  -5  245.13   50.85
   0 -10  -4  180.10   49.45
   0 -10  -3  136.15   49.45
   0 -10  -2  234.46   54.11
   0 -10  -1  617.42   63.05
   0  -9 -12  119.62   24.08
   0  -9 -12   75.12   28.63
   0  -9 -11  164.45   37.53
   0  -9 -10  522.22   57.34
   0  -9 -10  338.74   40.85
   0  -9 -10  529.85   57.30
   0  -9  -9  230.62   27.41
   0  -9  -9  336.70   50.74
   0  -9  -9  379.85   51.43
   0  -9  -8  357.46   27.93
   0  -9  -8  302.65   41.74
   0  -9  -8  601.91   48.80
   0  -9  -8  549.98   47.42
   0  -9  -7  851.06   49.85
   0  -9  -6  788.32   37.72
   0  -9  -6  694.19   47.14
   0  -9  -5  606.99   45.30
   0  -9  -5  601.70   46.05
   0  -9  -4  424.38   44.84
   0  -9  -3  504.84   48.55
   0  -9  -2  587.10   52.69
   0  -9  -1  815.35   58.74
   0  -9   0  573.54   58.18
   0  -9   1  522.88   60.04
   0  -9   2  605.22   64.31
   0  -8 -11  215.11   23.51
   0  -8 -11  239.60   29.49
   0  -8 -10  219.17   33.22
   0  -8 -10  305.74   55.27
   0  -8  -9  197.81   50.82
   0  -8  -9  265.36   49.67
   0  -8  -9  195.93   33.38
   0  -8  -8  561.20   46.84
   0  -8  -8  546.63   30.25
   0  -8  -8  495.90   38.07
   0  -8  -8  635.44   48.57
   0  -8  -7 1254.16   55.91
   0  -8  -7 1399.64   54.03
   0  -8  -7 1376.09   54.07
   0  -8  -6  398.65   27.71
   0  -8  -6  385.76   38.46
   0  -8  -5  219.84   34.72
   0  -8  -4  365.18   38.82
   0  -8  -4  418.17   37.79
   0  -8  -3  519.01   42.99
   0  -8  -2  390.62   43.25
   0  -8  -1  274.58   44.52
   0  -8   0  173.43   45.98
   0  -8   1  139.95   47.62
   0  -8   2  578.96   58.13
   0  -8   3  279.44   56.49
   0  -7 -11   34.69   11.44
   0  -7 -10   53.92   25.19
   0  -7 -10   78.67   19.86
   0  -7  -9  264.25   49.68
   0  -7  -9   88.20   27.74
   0  -7  -8  186.46   26.83
   0  -7  -8  294.11   42.59
   0  -7  -8  370.02   45.83
   0  -7  -6  215.17   34.09
   0  -7  -5  414.79   35.93
   0  -7  -4  297.45   33.82
   0  -7  -3  274.10   31.62
   0  -7  -2  266.34   36.24
   0  -7  -2  334.99   33.34
   0  -7  -1  454.00   40.65
   0  -7   0  959.43   50.38
   0  -7   1  884.57   52.53
   0  -7   2  224.90   46.12
   0  -7   3  245.56   49.60
   0  -7   6  518.82   60.75
   0  -6 -10   80.11   11.57
   0  -6 -10   79.11   12.42
   0  -6  -9  503.27   22.81
   0  -6  -9  396.33   25.42
   0  -6  -8  353.61   44.44
   0  -6  -7  361.90   36.40
   0  -6  -7  505.00   39.95
   0  -6  -7  502.46   40.36
   0  -6  -6  859.66   40.45
   0  -6  -6  867.49   39.65
   0  -6  -6  912.50   40.90
   0  -6  -5 1338.21   37.68
   0  -6  -5 1446.41   47.90
   0  -6  -4  638.08   32.80
   0  -6  -4  714.50   36.23
   0  -6  -3  983.67   39.27
   0  -6  -2 2012.73   56.91
   0  -6  -1  918.95   42.70
   0  -6  -1  924.35   36.67
   0  -6   0 1158.72   47.85
   0  -6   1 1329.85   54.17
   0  -6   2 1609.70   62.06
   0  -6   3 1039.65   54.66
   0  -6   4  900.86   53.15
   0  -6   4  848.61   54.24
   0  -6   5  366.42   50.54
   0  -6   6  419.08   52.50
   0  -6   7  511.97   56.68
   0  -6   8  460.10   59.66
   0  -5  -8  408.51   19.39
   0  -5  -7 1047.61   48.75
   0  -5  -7  999.22   43.51
   0  -5  -6 1433.13   47.55
   0  -5  -6 1365.15   39.00
   0  -5  -5  670.90   33.98
   0  -5  -5  629.49   23.74
   0  -5  -4  144.32   25.04
   0  -5  -3  580.28   29.12
   0  -5  -3  511.02   26.99
   0  -5  -3  572.97   30.96
   0  -5  -2 3873.49   87.72
   0  -5  -2 4166.52   92.33
   0  -5  -1 2046.27   49.24
   0  -5  -1 2235.07   56.35
   0  -5   1  185.08   32.56
   0  -5   2  263.93   35.05
   0  -5   3  367.59   36.28
   0  -5   3  323.68   38.00
   0  -5   4  232.78   39.07
   0  -5   4   86.77   11.10
   0  -5   4  200.52   39.11
   0  -5   5  122.47   43.22
   0  -5   5   56.97   17.55
   0  -5   6   69.75   47.04
   0  -5   6  113.63   46.46
   0  -5   6   53.13   20.82
   0  -5   7  109.64   46.75
   0  -5   7  104.07   48.07
   0  -5   7   62.87   24.81
   0  -5   8  210.89   52.30
   0  -5   8  148.71   50.32
   0  -5   8  122.36   27.80
   0  -5   9  190.56   55.34
   0  -5   9  128.72   29.13
   0  -5   9  120.50   64.47
   0  -5   9  121.20   51.38
   0  -4  -5  304.51   27.49
   0  -4  -5  277.52   21.16
   0  -4  -4  164.57   23.47
   0  -4  -3  104.02   20.00
   0  -4  -3  146.10   23.43
   0  -4  -3   87.93   22.00
   0  -4  -2  229.34   22.32
   0  -4  -2  239.60   23.24
   0  -4  -1  511.80   21.16
   0  -4  -1  509.18   25.90
   0  -4   0  183.26   19.57
   0  -4   1  515.93   31.30
   0  -4   2  681.39   33.20
   0  -4   2  724.50   37.50
   0  -4   3 1929.85   59.39
   0  -4   3 1905.83   55.52
   0  -4   3 1902.33   60.74
   0  -4   4 1618.11   57.72
   0  -4   4 1527.05   50.16
   0  -4   4 1547.31   53.69
   0  -4   4 1470.80   37.82
   0  -4   4 1435.11   52.99
   0  -4   5 1531.55   57.40
   0  -4   5 1453.91   40.08
   0  -4   5 1542.52   61.83
   0  -4   6  808.24   49.53
   0  -4   6  707.19   31.53
   0  -4   6  810.67   53.56
   0  -4   7  700.42   51.85
   0  -4   7  645.39   34.61
   0  -4   7  698.13   49.03
   0  -4   7  727.06   56.78
   0  -4   8  902.53   41.06
   0  -4   8 1052.24   57.32
   0  -4   8 1027.39   62.18
   0  -4   9  850.16   70.49
   0  -4   9  750.86   41.27
   0  -4   9  863.51   63.90
   0  -4   9  834.26   57.92
   0  -3  -6  717.15   20.73
   0  -3  -6  900.56   33.80
   0  -3  -5 2705.43   68.14
   0  -3  -5 2500.52   63.71
   0  -3  -4 1217.57   38.65
   0  -3  -4 1367.64   35.52
   0  -3  -3  864.27   28.96
   0  -3  -3  869.40   30.22
   0  -3  -2 1499.04   39.62
   0  -3  -2 1624.84   40.59
   0  -3  -2 1713.60   42.43
   0  -3  -1 8146.02  168.77
   0  -3   0 1338.26   30.59
   0  -3   0 1459.81   35.80
   0  -3   1 1696.22   44.55
   0  -3   1 1585.46   45.88
   0  -3   1 1670.80   43.69
   0  -3   2 1419.78   44.82
   0  -3   2 1385.33   42.59
   0  -3   2 1482.20   45.20
   0  -3   3 2507.99   66.42
   0  -3   3 2585.99   63.30
   0  -3   3 2647.07   69.38
   0  -3   3 2393.34   65.88
   0  -3   4 3462.94   86.88
   0  -3   4 3616.38   84.08
   0  -3   4 3600.75   92.29
   0  -3   4 3485.18   89.20
   0  -3   5 1894.45   63.23
   0  -3   5 1795.85   56.44
   0  -3   5 1753.13   47.12
   0  -3   5 1813.67   60.09
   0  -3   6  558.18   45.69
   0  -3   6  601.48   35.99
   0  -3   6  577.17   30.67
   0  -3   6  561.51   42.54
   0  -3   7  344.30   35.21
   0  -3   7  333.63   31.06
   0  -3   7  338.89   39.74
   0  -3   7  325.12   42.86
   0  -3   7  288.25   47.87
   0  -3   8  428.43   47.96
   0  -3   8  414.36   51.82
   0  -3   8  378.56   36.46
   0  -3   8  392.50   43.67
   0  -3   9  234.03   50.49
   0  -3   9  245.79   60.67
   0  -3   9  210.71   45.99
   0  -3   9  202.47   37.68
   0  -3  10   95.66   51.89
   0  -3  10   53.16   38.12
   0  -3  10   34.09   45.18
   0  -3  10   38.62   63.69
   0  -2  -5 2863.74   67.04
   0  -2  -4 1086.89   32.58
   0  -2  -4 1079.40   25.28
   0  -2  -3 1083.90   31.26
   0  -2  -3 1010.10   29.09
   0  -2  -2 1016.44   28.64
   0  -2  -1 2382.21   52.85
   0  -2   0 1564.62   36.20
   0  -2   1  192.78   19.82
   0  -2   1  115.26   18.97
   0  -2   2  616.38   24.28
   0  -2   2  636.69   28.83
   0  -2   2  406.81   27.14
   0  -2   2  691.63   25.87
   0  -2   3    9.14   25.06
   0  -2   3    4.74   22.17
   0  -2   3   16.34   18.48
   0  -2   3   20.53   25.42
   0  -2   4   27.86   19.27
   0  -2   4   48.91   26.72
   0  -2   4  -11.06   26.65
   0  -2   4   28.95   26.08
   0  -2   4   36.28   20.20
   0  -2   5   22.86   29.47
   0  -2   5    0.88   28.15
   0  -2   5    7.37   25.58
   0  -2   5    1.33   22.64
   0  -2   6   96.87   32.94
   0  -2   6  177.78   34.64
   0  -2   7  112.74   30.31
   0  -2   7   90.49   36.97
   0  -2   7  111.63   37.98
   0  -2   7  101.81   33.75
   0  -2   7  110.18   29.24
   0  -2   8  263.80   44.00
   0  -2   8  186.60   43.47
   0  -2   8  226.07   32.37
   0  -2   8  247.43   38.25
   0  -2   8  250.14   34.88
   0  -2   9  656.37   61.68
   0  -2   9  467.23   51.31
   0  -2   9  496.83   45.40
   0  -2   9  477.27   41.31
   0  -2   9  512.14   53.79
   0  -2  10  325.77   54.35
   0  -2  10  480.20   65.17
   0  -2  10  368.74   43.72
   0  -2  10  367.79   43.18
   0  -2  11  167.96   54.85
   0  -2  11  209.75   39.82
   0  -2  11  186.66   43.46
   0  -1  -4   63.87   11.49
   0  -1  -3 1984.28   45.31
   0  -1  -2  182.74   13.35
   0  -1  -2  193.09   13.68
   0  -1   0 4251.78   87.39
   0  -1   1 1427.22   33.76
   0  -1   1 1401.81   32.49
   0  -1   2 3241.39   70.18
   0  -1   2 3265.14   72.45
   0  -1   2 3326.71   73.98
   0  -1   2 3305.49   73.81
   0  -1   3 1202.99   31.19
   0  -1   3 1078.45   34.31
   0  -1   3 1200.29   38.14
   0  -1   4 3830.97   87.42
   0  -1   4 3979.66   84.57
   0  -1   4 3777.58   86.09
   0  -1   4 4029.87   92.49
   0  -1   5 2760.75   63.37
   0  -1   5 2693.05   67.57
   0  -1   5 2767.98   66.46
   0  -1   5 2784.85   73.41
   0  -1   6 2880.01   71.60
   0  -1   6 2924.64   79.67
   0  -1   7  787.13   45.38
   0  -1   7  739.23   32.35
   0  -1   7  766.62   38.07
   0  -1   8 1019.13   53.84
   0  -1   8 1145.00   57.24
   0  -1   8  944.25   38.58
   0  -1   8 1035.08   44.07
   0  -1   8 1054.51   44.74
   0  -1   9 1665.09   69.37
   0  -1   9 1465.27   66.18
   0  -1   9 1453.79   49.50
   0  -1   9 1736.51   58.25
   0  -1   9 1545.44   53.82
   0  -1   9 1708.43   71.50
   0  -1  10 1233.82   49.71
   0  -1  10 1375.43   56.95
   0  -1  10 1285.28   67.71
   0  -1  11  585.38   49.34
   0  -1  11  455.18   39.38
   0  -1  11  529.72   59.66
   0   0  -7  495.08   41.60
   0   0  -6 1743.03   57.55
   0   0  -5 2363.13   64.58
   0   0  -4 4824.21  108.79
   0   0  -3 1425.20   39.70
   0   0  -2  347.07   14.37
   0   0  -2  369.11   15.01
   0   0  -2  370.39   17.30
   0   0   2  371.19   13.57
   0   0   2  379.45   14.67
   0   0   2  331.53   15.80
   0   0   3 1464.24   39.66
   0   0   3 1479.98   35.19
   0   0   3 1346.73   37.92
   0   0   3 1427.55   34.35
   0   0   3 1399.21   32.38
   0   0   4 4817.23  106.26
   0   0   4 4686.61   98.53
   0   0   4 4972.53  102.95
   0   0   4 4890.02  100.79
   0   0   4 4631.50   99.89
   0   0   4 4584.94   97.40
   0   0   5 2528.96   65.16
   0   0   5 2365.65   55.08
   0   0   5 2483.95   58.55
   0   0   5 2573.74   61.44
   0   0   5 2359.25   53.18
   0   0   5 2428.33   57.10
   0   0   6 1654.98   54.60
   0   0   6 1732.13   50.22
   0   0   7  521.93   38.24
   0   0   7  369.40   18.39
   0   0   7  464.62   24.15
   0   0   7  594.20   35.84
   0   0   7  494.88   28.18
   0   0   8  387.92   41.41
   0   0   8  359.70   40.71
   0   0   8  285.16   27.10
   0   0   8  266.82   24.15
   0   0   9  744.51   51.59
   0   0   9  604.08   31.48
   0   0   9  713.29   34.08
   0   0   9  804.56   45.95
   0   0  10  145.93   42.61
   0   0  10  214.43   48.39
   0   0  10  161.50   29.03
   0   0  10  130.46   27.18
   0   0  11  122.05   44.93
   0   0  11  109.66   27.44
   0   0  12   38.16   47.20
   0   0  12   74.64   58.15
   0   0  12   24.19   54.88
   0   1  -9 1529.75   70.18
   0   1  -8 1015.59   56.13
   0   1  -7  777.11   46.71
   0   1  -6 2949.58   81.15
   0   1  -5 2799.53   66.26
   0   1  -5 2798.83   74.82
   0   1  -4 3878.19   92.02
   0   1  -3 1165.52   38.31
   0   1  -2 3110.57   68.75
   0   1  -2 3347.03   73.09
   0   1  -1 1317.30   32.46
   0   1  -1 1497.46   34.28
   0   1  -1 1396.42   34.13
   0   1   1 2854.90   59.45
   0   1   2  209.60   16.34
   0   1   2  213.01   18.88
   0   1   2  205.85   13.23
   0   1   2  198.63   14.74
   0   1   2  201.05   12.55
   0   1   2  192.87   14.54
   0   1   3 1982.83   45.16
   0   1   3 1952.66   46.86
   0   1   3 1921.83   45.98
   0   1   3 1981.08   47.57
   0   1   4   80.34   22.12
   0   1   4  141.61   20.90
   0   1   4   72.73   16.74
   0   1   4  111.89   20.74
   0   1   4  105.29   15.73
   0   1   4  100.55   10.76
   0   1   5  683.33   25.72
   0   1   5  706.38   24.67
   0   1   5  676.98   33.04
   0   1   5  727.50   32.74
   0   1   5  718.51   30.56
   0   1   5  585.14   20.06
   0   1   6  301.39   22.75
   0   1   6  291.67   20.65
   0   1   6  303.92   29.71
   0   1   6  273.68   29.56
   0   1   6  320.06   28.17
   0   1   7   93.86   31.00
   0   1   7   75.67   28.40
   0   1   7   63.02   23.14
   0   1   7   79.33   31.57
   0   1   8  259.39   36.73
   0   1   8  221.46   23.54
   0   1   8  269.94   37.84
   0   1   8  214.47   21.18
   0   1   8  348.68   34.47
   0   1   8  262.25   19.94
   0   1   9  213.39   41.49
   0   1   9  162.48   22.88
   0   1   9   71.82   21.94
   0   1   9  139.44   20.10
   0   1  10  160.01   22.31
   0   1  10  242.75   43.04
   0   1  10  160.65   46.61
   0   1  11  596.64   49.49
   0   1  12  157.11   74.01
   0   1  12  188.08   57.66
   0   1  12  292.19   50.04
   0   2 -10  446.80   60.67
   0   2  -9  549.40   56.69
   0   2  -8  287.47   45.10
   0   2  -7  107.62   38.82
   0   2  -7   87.26   35.21
   0   2  -6  141.17   34.55
   0   2  -5   10.55   29.80
   0   2  -4   19.40   25.84
   0   2  -3   -5.47   22.21
   0   2  -3    3.74   20.43
   0   2  -2  634.85   28.02
   0   2  -2  610.11   24.50
   0   2  -2  658.21   27.92
   0   2  -1  155.99   13.98
   0   2  -1  240.47   18.19
   0   2  -1  148.42   18.21
   0   2  -1  214.13   19.20
   0   2   0 1569.75   36.01
   0   2   0 1677.64   37.60
   0   2   1 2289.26   49.40
   0   2   2  798.31   22.75
   0   2   2  938.85   26.93
   0   2   3 1053.48   32.43
   0   2   3 1055.40   33.99
   0   2   3 1065.88   32.00
   0   2   3 1075.14   30.71
   0   2   3 1075.23   32.11
   0   2   4 1190.70   40.06
   0   2   4 1223.23   39.67
   0   2   4 1136.51   35.31
   0   2   4 1244.68   33.22
   0   2   4 1123.65   34.98
   0   2   4 1170.34   37.04
   0   2   5 3013.44   77.48
   0   2   5 3171.17   71.83
   0   2   5 3083.93   72.39
   0   2   5 3044.88   72.81
   0   2   5 3112.83   74.54
   0   2   6 2287.82   62.39
   0   2   6 2359.36   56.79
   0   2   6 2188.05   57.23
   0   2   6 2081.03   58.38
   0   2   6 2026.82   63.91
   0   2   6 2140.82   59.40
   0   2   7 1727.17   56.24
   0   2   7 1743.71   50.40
   0   2   7 1680.61   52.14
   0   2   7 1718.01   60.41
   0   2   7 1740.87   53.99
   0   2   8  758.75   43.78
   0   2   8  794.85   33.24
   0   2   8  750.46   35.70
   0   2   8  719.36   40.93
   0   2   8  699.66   52.09
   0   2   8  797.04   41.63
   0   2   9  897.21   38.94
   0   2   9  973.72   52.07
   0   2   9  868.27   59.36
   0   2   9  931.57   47.01
   0   2  10  418.75   47.08
   0   2  10  405.87   32.52
   0   2  10  249.53   23.45
   0   2  10  457.06   65.09
   0   2  11  742.81   72.41
   0   2  11  726.94   57.91
   0   2  11  639.89   34.35
   0   2  11  615.03   55.21
   0   2  11  683.05   49.90
   0   2  12  335.80   29.45
   0   2  12  429.69   78.85
   0   2  12  347.03   49.46
   0   2  12  410.56   59.32
   0   2  13  237.56   62.89
   0   3 -10   77.41   57.38
   0   3  -9  232.46   55.02
   0   3  -8  371.89   44.16
   0   3  -8  376.18   50.17
   0   3  -7  295.17   40.78
   0   3  -7  328.40   44.99
   0   3  -6  594.60   44.42
   0   3  -5 1826.03   62.07
   0   3  -4 3423.58   81.64
   0   3  -4 3556.96   89.78
   0   3  -3 2492.29   62.51
   0   3  -3 2515.88   67.42
   0   3  -2 1395.64   44.65
   0   3  -2 1367.25   42.04
   0   3  -2 1429.24   43.67
   0   3  -2 1348.10   33.42
   0   3  -1 1626.46   45.66
   0   3  -1 1732.79   41.77
   0   3  -1 1772.80   46.17
   0   3  -1 1717.55   47.30
   0   3   0 1487.17   38.73
   0   3   0 1478.11   32.88
   0   3   0 1478.63   40.47
   0   3   0 1509.53   40.24
   0   3   1 8380.34  169.58
   0   3   1 8268.08  170.63
   0   3   1 8111.01  167.48
   0   3   2 1665.65   41.85
   0   3   2 1592.40   42.25
   0   3   3  895.85   31.39
   0   3   3  902.97   29.72
   0   3   4 1268.87   39.41
   0   3   4 1326.85   39.14
   0   3   4 1280.13   37.94
   0   3   4 1268.62   40.11
   0   3   5 2542.67   65.98
   0   3   5 2565.00   66.42
   0   3   5 2726.98   64.81
   0   3   5 2519.97   60.21
   0   3   5 2569.56   64.41
   0   3   5 2614.72   65.14
   0   3   6  866.02   42.01
   0   3   6  959.65   42.35
   0   3   6  943.21   35.99
   0   3   6  839.32   32.98
   0   3   6  810.99   35.59
   0   3   6  923.95   39.32
   0   3   7 1299.80   48.16
   0   3   7 1196.69   51.11
   0   3   7 1273.31   43.23
   0   3   7 1203.07   43.87
   0   3   7 1238.52   42.55
   0   3   7 1248.59   52.20
   0   3   7 1372.11   47.78
   0   3   8  622.74   46.98
   0   3   8  706.94   41.68
   0   3   8  617.23   47.60
   0   3   8  707.51   41.05
   0   3   8  663.72   37.20
   0   3   9  267.28   40.16
   0   3   9  243.55   50.55
   0   3   9  308.18   32.75
   0   3   9  253.18   33.73
   0   3   9  256.70   49.10
   0   3   9  275.77   39.85
   0   3  10  243.42   36.39
   0   3  10  205.06   43.36
   0   3  10  285.16   46.40
   0   3  10  270.83   59.32
   0   3  10  274.62   60.68
   0   3  11  199.80   49.65
   0   3  11  232.84   66.67
   0   3  11  228.45   62.92
   0   3  11  175.71   48.57
   0   3  11  152.36   37.71
   0   3  12   77.34   18.82
   0   3  12  192.65   54.44
   0   3  12  174.20   70.60
   0   3  12  185.11   37.01
   0   3  13  155.45   57.88
   0   3  13  138.62   33.74
   0   4  -9  831.08   66.09
   0   4  -9  760.50   55.52
   0   4  -8  940.64   64.00
   0   4  -8  977.45   58.51
   0   4  -7  678.80   54.08
   0   4  -7  686.24   51.07
   0   4  -6  799.42   51.44
   0   4  -5 1418.47   58.31
   0   4  -4 1507.42   56.67
   0   4  -4 1566.16   49.93
   0   4  -3 1896.59   54.88
   0   4  -3 1810.23   58.83
   0   4  -2  732.08   35.10
   0   4  -2  728.74   33.56
   0   4  -2  731.30   36.11
   0   4  -2  705.57   25.49
   0   4  -1  491.53   28.11
   0   4  -1  487.82   23.71
   0   4  -1  508.70   28.85
   0   4  -1  436.18   30.42
   0   4   0  171.63   23.20
   0   4   0  166.95   16.14
   0   4   0  181.72   12.45
   0   4   0  142.55   24.79
   0   4   0  240.25   24.11
   0   4   1  520.28   23.69
   0   4   1  520.28   28.21
   0   4   1  544.04   20.83
   0   4   2  259.94   21.06
   0   4   2  255.02   21.70
   0   4   2  233.64   24.15
   0   4   3  159.59   20.30
   0   4   3  136.90   22.33
   0   4   4  203.69   25.95
   0   4   4  202.11   23.14
   0   4   5  376.56   20.30
   0   4   5  329.75   27.44
   0   4   5  326.39   27.41
   0   4   6  379.86   27.73
   0   4   6  454.58   33.75
   0   4   7  560.63   39.61
   0   4   7  568.15   34.81
   0   4   7  538.22   33.57
   0   4   7  538.63   39.40
   0   4   8  142.13   39.59
   0   4   8  159.71   31.04
   0   4   8  124.34   30.73
   0   4   8  130.55   40.22
   0   4   8  134.78   35.17
   0   4   9   96.20   43.74
   0   4   9  113.93   37.59
   0   4   9  133.13   38.22
   0   4   9  116.70   31.93
   0   4   9  129.35   45.06
   0   4  10  363.42   39.29
   0   4  10  331.31   41.40
   0   4  10  280.27   44.53
   0   4  10  345.61   53.72
   0   4  10  340.40   55.67
   0   4  10  289.99   45.87
   0   4  11  516.37   61.59
   0   4  11  486.08   52.99
   0   4  11  527.45   45.64
   0   4  11  537.87   51.74
   0   4  11  607.13   64.13
   0   4  11  444.94   50.87
   0   4  12  517.14   46.76
   0   4  12  542.09   54.75
   0   4  12  535.55   70.35
   0   4  13  195.15   56.13
   0   4  13  215.13   41.92
   0   5  -9   98.76   55.31
   0   5  -9  131.04   60.47
   0   5  -8  151.46   55.93
   0   5  -8   81.45   54.23
   0   5  -7   65.54   47.94
   0   5  -6   58.53   45.05
   0   5  -5   81.76   41.37
   0   5  -4  239.13   35.26
   0   5  -4  187.06   38.13
   0   5  -3  380.73   35.84
   0   5  -3  317.01   33.36
   0   5  -3  367.87   35.80
   0   5  -3  259.54   21.52
   0   5  -2  310.99   31.82
   0   5  -2  236.58   30.93
   0   5  -2  240.47   30.92
   0   5  -1  277.96   28.29
   0   5  -1  179.08   25.50
   0   5  -1  171.34   29.58
   0   5  -1  240.64   29.24
   0   5   0  541.76   29.80
   0   5   0  574.15   23.33
   0   5   0  550.44   18.97
   0   5   0  472.75   32.57
   0   5   0  539.49   31.09
   0   5   1 2327.61   54.99
   0   5   1 2255.17   59.36
   0   5   1 2148.95   51.22
   0   5   2 4347.26   59.10
   0   5   2 4247.78   63.26
   0   5   2 4295.53   54.12
   0   5   3  588.13   32.72
   0   5   3  538.50   29.20
   0   5   3  607.94   29.42
   0   5   4  230.47   25.75
   0   5   4  143.35   27.07
   0   5   5  703.38   25.40
   0   5   5  649.66   34.19
   0   5   6 1476.26   49.91
   0   5   6 1577.48   50.39
   0   5   7  911.84   43.48
   0   5   7  919.68   40.58
   0   5   7 1022.93   44.33
   0   5   8  591.76   42.34
   0   5   8  580.48   40.69
   0   5   8  584.15   38.75
   0   5   8  525.63   36.48
   0   5   9  477.57   45.37
   0   5   9  472.12   42.66
   0   5   9  367.35   38.11
   0   5  10  657.26   49.34
   0   5  10  713.90   53.53
   0   5  10  601.37   44.80
   0   5  10  699.63   45.54
   0   5  10  702.14   56.09
   0   5  10  708.66   50.34
   0   5  11  519.66   58.50
   0   5  11  466.10   51.44
   0   5  11  518.95   46.16
   0   5  11  432.72   46.48
   0   5  11  498.55   57.42
   0   5  11  433.19   52.34
   0   5  12  362.99   48.07
   0   5  12  411.62   48.69
   0   5  12  402.78   51.14
   0   5  12  395.93   64.05
   0   5  13  371.03   50.49
   0   5  13  514.77   71.27
   0   5  13  418.31   57.46
   0   6  -8  325.81   64.10
   0   6  -8  398.10   62.91
   0   6  -7  483.90   59.66
   0   6  -6  386.29   55.49
   0   6  -5  381.75   50.55
   0   6  -4  915.48   50.34
   0   6  -4  799.50   52.40
   0   6  -3 1008.28   49.50
   0   6  -3 1022.87   48.07
   0   6  -3 1015.05   50.80
   0   6  -3  783.65   33.32
   0   6  -2 1584.02   57.24
   0   6  -2 1764.23   57.51
   0   6  -2 1511.63   58.56
   0   6  -2 1516.11   46.58
   0   6  -1 1312.00   48.87
   0   6  -1 1347.85   51.74
   0   6  -1 1373.74   50.14
   0   6   0 1256.66   43.46
   0   6   0 1201.29   35.47
   0   6   0 1227.68   46.18
   0   6   0 1110.01   45.71
   0   6   1  961.10   33.71
   0   6   1  993.52   39.86
   0   6   1  944.69   29.52
   0   6   2 1986.91   55.10
   0   6   2 2176.75   61.07
   0   6   2 2115.49   52.28
   0   6   3 1004.26   41.34
   0   6   3  995.48   38.45
   0   6   3 1033.12   42.68
   0   6   3 1050.57   37.14
   0   6   4  769.07   35.31
   0   6   4  652.11   33.94
   0   6   5 1593.35   51.51
   0   6   5 1695.59   52.31
   0   6   6 1038.93   43.64
   0   6   6  927.35   43.15
   0   6   7  392.39   32.22
   0   6   7  456.92   38.38
   0   6   7  437.18   37.96
   0   6   8  420.76   29.08
   0   6   8  350.94   34.11
   0   6   8  394.99   40.21
   0   6   8  379.04   38.31
   0   6   9  690.92   45.36
   0   6   9  650.68   42.95
   0   6   9  770.50   36.28
   0   6   9  665.01   47.84
   0   6  10  267.96   46.66
   0   6  10  257.53   40.85
   0   6  10  360.89   48.18
   0   6  11  173.74   44.15
   0   6  11  131.98   49.64
   0   6  11  193.78   43.32
   0   6  11  136.64   45.77
   0   6  11  178.09   54.53
   0   6  12  108.39   46.21
   0   6  13   93.19   30.51
   0   6  13  180.00   49.72
   0   7  -7  566.24   66.97
   0   7  -6  474.68   61.56
   0   7  -5  494.12   51.38
   0   7  -5  434.58   55.94
   0   7  -4  623.26   54.99
   0   7  -3  209.41   42.29
   0   7  -3  202.13   41.75
   0   7  -3  229.53   43.64
   0   7  -3  114.23   27.13
   0   7  -2  183.48   39.44
   0   7  -2  183.26   40.24
   0   7  -2  164.29   41.53
   0   7  -2  160.75   30.53
   0   7  -1  885.36   45.40
   0   7  -1  822.82   47.69
   0   7  -1  846.12   46.31
   0   7   0  824.22   41.77
   0   7   0  818.47   44.71
   0   7   0  877.38   44.75
   0   7   1  414.53   34.81
   0   7   1  411.71   26.74
   0   7   1  423.02   33.28
   0   7   1  383.35   35.61
   0   7   2  297.63   34.07
   0   7   2  332.94   28.78
   0   7   3  295.86   28.65
   0   7   3  277.20   31.95
   0   7   3  314.62   36.37
   0   7   3  333.47   28.70
   0   7   4  253.85   34.19
   0   7   4  341.48   32.12
   0   7   4  318.69   36.71
   0   7   4  331.70   31.13
   0   7   5  390.86   36.06
   0   7   5  471.15   34.46
   0   7   5  438.39   36.45
   0   7   5  458.22   38.23
   0   7   6  232.78   32.14
   0   7   6  261.76   34.01
   0   7   6  198.09   34.98
   0   7   7  444.04   39.78
   0   7   7  303.45   38.95
   0   7   8  285.06   40.26
   0   7   8  231.62   34.35
   0   7   8  176.73   39.58
   0   7   8  299.65   28.74
   0   7   9  211.29   40.13
   0   7   9   92.15   42.65
   0   7   9  129.69   36.56
   0   7  10  103.82   39.29
   0   7  10  163.40   32.08
   0   7  11  229.53   46.16
   0   7  11  106.15   49.55
   0   7  11  151.47   44.12
   0   7  11  249.60   35.26
   0   7  12  166.28   46.61
   0   7  12  223.30   39.07
   0   7  12  133.80   45.51
   0   7  13  345.33   45.65
   0   7  13  220.39   50.26
   0   8  -6   98.83   59.65
   0   8  -5   85.99   52.09
   0   8  -5   82.10   55.39
   0   8  -4  149.97   51.88
   0   8  -3  278.62   48.78
   0   8  -3  361.72   49.39
   0   8  -3  323.05   52.15
   0   8  -3  235.45   32.69
   0   8  -2  609.32   50.07
   0   8  -2  667.12   49.88
   0   8  -2  549.87   51.74
   0   8  -2  557.89   39.68
   0   8  -1  159.94   41.45
   0   8  -1  128.02   39.02
   0   8  -1   81.21   42.83
   0   8  -1  143.13   34.19
   0   8   0  192.04   40.24
   0   8   0  284.98   37.25
   0   8   0  197.09   41.73
   0   8   1  264.16   39.66
   0   8   1  245.40   36.53
   0   8   2  363.48   38.85
   0   8   2  507.30   40.38
   0   8   2  485.07   28.74
   0   8   3  551.98   40.38
   0   8   3  684.17   43.94
   0   8   3  649.76   36.31
   0   8   4  373.54   39.75
   0   8   4  467.78   41.22
   0   8   4  407.11   34.45
   0   8   5  108.44   35.83
   0   8   5  235.01   33.50
   0   8   5  220.79   38.71
   0   8   5  221.84   35.83
   0   8   6  389.55   41.16
   0   8   6  467.87   38.19
   0   8   6  444.85   41.28
   0   8   6  487.21   40.41
   0   8   7 1347.42   56.08
   0   8   7 1321.24   54.43
   0   8   7 1454.82   58.33
   0   8   7 1432.41   56.88
   0   8   8  624.09   47.88
   0   8   8  580.13   43.28
   0   8   8  663.20   48.67
   0   8   9  234.45   39.36
   0   8   9  256.01   44.23
   0   8   9  248.44   46.55
   0   8  10  225.98   46.90
   0   8  10  249.71   49.20
   0   8  10  260.40   42.94
   0   8  10  412.13   32.51
   0   8  11  164.93   35.45
   0   8  11  341.62   47.58
   0   8  12  148.54   48.00
   0   8  12  182.69   38.06
   0   8  12   93.93   36.78
   0   8  12  226.92   49.48
   0   8  13  271.15   40.53
   0   8  13  201.17   51.91
   0   8  13  165.83   37.44
   0   9  -4  294.17   57.85
   0   9  -4  208.85   58.11
   0   9  -3  521.54   59.63
   0   9  -3  404.50   37.17
   0   9  -2  530.23   54.66
   0   9  -2  576.85   56.51
   0   9  -2  459.69   40.80
   0   9  -1  535.05   49.13
   0   9  -1  561.11   51.07
   0   9  -1  443.12   53.40
   0   9  -1  507.20   42.87
   0   9   0  512.62   45.14
   0   9   0  428.70   42.94
   0   9   0  463.58   49.72
   0   9   0  495.59   47.88
   0   9   1  687.09   27.60
   0   9   1  898.34   52.36
   0   9   1  755.18   49.32
   0   9   2  531.93   35.26
   0   9   2  526.11   29.31
   0   9   2  615.57   46.11
   0   9   2  589.57   42.83
   0   9   3  389.97   43.14
   0   9   3  460.99   45.31
   0   9   3  482.90   33.61
   0   9   4  404.68   42.10
   0   9   4  477.35   46.11
   0   9   4  435.63   38.56
   0   9   5  650.85   48.32
   0   9   5  695.30   49.28
   0   9   5  662.27   42.67
   0   9   6  808.93   51.06
   0   9   6  868.29   53.28
   0   9   6  784.77   47.50
   0   9   7  833.15   51.64
   0   9   7  834.75   52.61
   0   9   7  720.72   47.94
   0   9   7  885.05   52.53
   0   9   8  407.23   44.87
   0   9   8  446.62   47.38
   0   9   8  411.63   47.52
   0   9   9  213.30   44.05
   0   9   9  216.79   41.76
   0   9   9  205.39   46.48
   0   9   9  167.17   48.38
   0   9  10  457.55   46.09
   0   9  10  435.52   51.60
   0   9  10  409.09   46.04
   0   9  10  470.41   53.40
   0   9  11  259.89   47.30
   0   9  11  243.16   44.44
   0   9  12  126.25   48.53
   0   9  12  115.53   42.03
   0   9  13   61.41   40.76
   0   9  13   61.65   50.52
   0   9  13   92.52   35.54
   0  10  -3  279.80   61.00
   0  10  -3  187.92   36.70
   0  10  -2  261.22   56.59
   0  10  -2  255.23   56.96
   0  10  -2  181.15   39.70
   0  10  -1  368.37   54.36
   0  10  -1  284.20   55.69
   0  10  -1  305.21   43.50
   0  10   0  549.51   54.79
   0  10   0  458.45   55.09
   0  10   0  504.07   45.88
   0  10   1  548.96   47.33
   0  10   1  581.40   48.23
   0  10   1  479.41   51.22
   0  10   1  560.00   52.73
   0  10   2  200.41   25.97
   0  10   2  203.29   43.31
   0  10   2  212.84   46.71
   0  10   3  146.39   35.40
   0  10   3  132.57   42.30
   0  10   3  120.55   30.92
   0  10   4  153.28   43.50
   0  10   4  182.09   46.39
   0  10   4  199.22   36.77
   0  10   5  132.87   45.10
   0  10   5  296.17   48.97
   0  10   5  264.86   40.46
   0  10   5  236.21   40.26
   0  10   6  247.71   46.37
   0  10   6  388.88   49.77
   0  10   6  296.44   42.54
   0  10   7   85.74   41.36
   0  10   7   32.11   42.72
   0  10   7  125.88   45.46
   0  10   8   32.71   41.59
   0  10   8   61.62   45.33
   0  10   9   63.17   44.43
   0  10   9   59.73   46.43
   0  10   9   68.51   48.47
   0  10  10   75.79   44.25
   0  10  10   79.97   46.42
   0  10  11   49.32   46.84
   0  10  11   71.85   46.30
   0  10  12   20.61   49.07
   0  10  12   50.87   44.65
   0  11  -1  136.59   44.01
   0  11  -1   79.33   56.55
   0  11  -1   64.17   55.21
   0  11   0  170.78   46.14
   0  11   0   60.06   53.45
   0  11   0  112.18   53.46
   0  11   1  140.91   46.37
   0  11   1   77.84   52.01
   0  11   1  143.45   51.38
   0  11   2  114.21   47.77
   0  11   2   71.60   24.91
   0  11   2   77.82   49.41
   0  11   2   73.78   46.45
   0  11   3  193.51   49.52
   0  11   3  114.89   29.83
   0  11   3  222.94   46.77
   0  11   3  178.65   49.90
   0  11   4  121.36   40.50
   0  11   4   97.97   47.55
   0  11   4  149.55   37.35
   0  11   5   90.29   46.90
   0  11   5  163.07   50.58
   0  11   5  207.67   41.78
   0  11   6  108.64   43.66
   0  11   6   85.42   49.75
   0  11   6  202.23   51.93
   0  11   6   91.90   44.27
   0  11   7  190.11   45.39
   0  11   7  218.50   49.77
   0  11   7  181.21   52.40
   0  11   7  190.76   48.14
   0  11   8  157.43   48.35
   0  11   9   71.49   47.76
   0  11  10  107.62   49.52
   0  11  10  181.46   51.42
   0  11  11  285.08   53.45
   0  11  11  252.06   53.76
   0  11  12  262.90   55.51
   0  11  12  247.81   52.90
   0  12   1  319.30   59.76
   0  12   1  332.13   59.50
   0  12   1  280.05   52.08
   0  12   2  399.67   53.95
   0  12   2  447.80   59.35
   0  12   2  392.84   56.81
   0  12   3  335.54   55.31
   0  12   3  213.06   30.93
   0  12   3  354.85   53.15
   0  12   3  436.71   56.90
   0  12   4  231.65   54.20
   0  12   4  197.71   36.64
   0  12   5  276.13   46.53
   0  12   5  180.95   53.13
   0  12   5  315.54   44.11
   0  12   6  211.17   55.68
   0  12   6  395.97   49.01
   0  12   7  203.59   56.00
   0  12   7  365.74   50.61
   0  12   8  144.17   51.48
   0  12   8  254.31   52.85
   0  12   9  125.93   51.22
   0  12  10   89.48   52.29
   0  12  10  124.53   54.58
   0  12  11  205.42   56.82
   0  12  11  194.92   55.54
   0  13   3  140.83   58.90
   0  13   3  188.19   27.25
   0  13   3  219.68   57.79
   0  13   4   43.33   33.66
   0  13   4   81.06   52.64
   0  13   4   32.73   55.92
   0  13   5   14.56   54.76
   0  13   5   38.41   39.86
   0  13   6   91.42   58.08
   0  13   6  199.67   49.60
   0  13   7  154.98   59.39
   0  13   7  213.71   54.40
   0  13   7  274.14   53.83
   0  13   8   89.70   52.93
   0  13   9   49.95   54.71
   1 -13  -8  242.59   61.17
   1 -13  -7  192.55   49.35
   1 -13  -6  258.66   59.18
   1 -13  -5   53.00   67.32
   1 -13  -4  106.88   70.04
   1 -12 -10   -9.06   64.81
   1 -12 -10   -3.61   33.55
   1 -12 -10   -6.59   49.11
   1 -12  -9   -9.04   34.47
   1 -12  -9    3.28   50.36
   1 -12  -9   33.29   59.25
   1 -12  -8   19.77   52.47
   1 -12  -8  115.75   55.90
   1 -12  -7   42.57   53.77
   1 -12  -7   83.83   43.25
   1 -12  -6  221.71   51.73
   1 -12  -5  -14.55   62.09
   1 -12  -4  278.05   66.98
   1 -12  -3  404.79   67.01
   1 -11 -11  242.12   45.84
   1 -11 -11  409.43   68.89
   1 -11 -10  134.71   46.40
   1 -11 -10  128.95   34.28
   1 -11  -9  186.28   57.42
   1 -11  -9   98.83   48.29
   1 -11  -9  131.88   34.60
   1 -11  -8  122.43   51.07
   1 -11  -8  374.04   54.65
   1 -11  -7  250.22   53.08
   1 -11  -7  349.74   40.95
   1 -11  -6  385.11   49.60
   1 -11  -5  277.69   55.35
   1 -11  -5  318.41   59.74
   1 -11  -4  138.10   53.99
   1 -11  -4  365.20   62.95
   1 -11  -3  154.01   56.63
   1 -10 -12  106.71   31.69
   1 -10 -11  265.02   39.67
   1 -10 -10  142.44   59.99
   1 -10 -10   87.60   40.71
   1 -10 -10  152.17   35.55
   1 -10  -9   73.15   53.10
   1 -10  -9   55.47   43.10
   1 -10  -9   89.38   33.18
   1 -10  -9  138.95   52.60
   1 -10  -8  109.81   49.55
   1 -10  -8   54.56   44.61
   1 -10  -8   85.61   49.38
   1 -10  -7   36.14   43.56
   1 -10  -6  244.46   41.91
   1 -10  -5  117.08   48.84
   1 -10  -5  102.07   51.82
   1 -10  -4   16.53   47.11
   1 -10  -4  183.00   56.26
   1 -10  -3   50.03   49.66
   1 -10  -2   98.15   51.50
   1 -10  -1  175.66   55.18
   1  -9 -11   35.49   31.07
   1  -9 -10   10.26   34.73
   1  -9 -10   99.75   55.79
   1  -9 -10   68.06   35.03
   1  -9  -9   71.56   49.85
   1  -9  -9    9.78   37.91
   1  -9  -9   84.57   50.54
   1  -9  -9   16.38   31.20
   1  -9  -8  235.54   45.40
   1  -9  -8  166.85   30.62
   1  -9  -8  286.28   48.43
   1  -9  -7   78.75   40.78
   1  -9  -7  289.54   42.79
   1  -9  -6  342.78   35.76
   1  -9  -5  368.60   43.06
   1  -9  -5  167.07   43.73
   1  -9  -4   87.25   41.20
   1  -9  -3  103.59   44.20
   1  -9  -3  190.00   35.98
   1  -9  -2  191.47   34.34
   1  -9  -2  154.48   47.28
   1  -9  -1  561.05   53.38
   1  -9   0  649.03   58.05
   1  -9   1  407.55   56.83
   1  -9   2  422.47   59.32
   1  -8 -11   71.24   17.00
   1  -8 -10  268.67   30.45
   1  -8 -10  442.20   59.88
   1  -8  -9  471.08   36.17
   1  -8  -9  462.73   55.95
   1  -8  -9  339.35   35.94
   1  -8  -9  502.25   53.55
   1  -8  -8  313.77   31.48
   1  -8  -8  513.50   49.34
   1  -8  -8  192.76   36.73
   1  -8  -8  467.09   45.96
   1  -8  -7  690.62   45.44
   1  -8  -7  624.59   44.98
   1  -8  -6  626.51   42.48
   1  -8  -6  556.84   32.89
   1  -8  -5  522.50   42.27
   1  -8  -5  618.39   40.87
   1  -8  -4  644.91   44.91
   1  -8  -4  602.28   38.24
   1  -8  -3  765.74   48.51
   1  -8  -2  882.39   50.30
   1  -8  -1  685.29   48.64
   1  -8  -1  562.98   32.48
   1  -8   0  814.13   54.11
   1  -8   0  723.72   31.07
   1  -8   1  436.64   50.04
   1  -8   2  374.53   53.35
   1  -8   3  733.16   59.27
   1  -7 -10  180.59   17.18
   1  -7  -9  332.58   36.59
   1  -7  -9  233.97   26.60
   1  -7  -9  313.07   53.50
   1  -7  -8  309.04   32.19
   1  -7  -8  281.21   44.83
   1  -7  -8  338.08   45.83
   1  -7  -8  237.12   30.42
   1  -7  -7  375.19   39.43
   1  -7  -7  333.24   39.75
   1  -7  -6  240.44   34.34
   1  -7  -6  286.46   34.38
   1  -7  -5  399.58   33.89
   1  -7  -5  306.19   33.06
   1  -7  -4  434.30   38.65
   1  -7  -4  440.53   34.23
   1  -7  -4  387.85   37.15
   1  -7  -3  624.26   43.57
   1  -7  -3  529.79   31.68
   1  -7  -3  511.81   39.14
   1  -7  -2  367.37   28.36
   1  -7  -2  405.87   38.24
   1  -7   0  208.39   39.20
   1  -7   0  165.54   22.57
   1  -7   1  317.50   43.46
   1  -7   2  163.83   43.51
   1  -7   3   99.29   44.79
   1  -7   4  210.40   50.87
   1  -7   6  172.09   55.22
   1  -6  -9   59.11   11.58
   1  -6  -9   39.01   12.44
   1  -6  -8  223.56   48.23
   1  -6  -8   59.16   21.38
   1  -6  -7  644.51   43.30
   1  -6  -7  554.94   40.72
   1  -6  -6  230.03   32.42
   1  -6  -6  500.44   34.65
   1  -6  -5  266.81   29.48
   1  -6  -5  353.53   30.79
   1  -6  -4  464.97   30.83
   1  -6  -4  397.81   30.19
   1  -6  -4  397.23   34.16
   1  -6  -3  262.38   33.55
   1  -6  -3  183.56   30.12
   1  -6  -2  549.29   29.14
   1  -6  -2  534.44   36.77
   1  -6  -1  334.11   23.41
   1  -6  -1  330.99   34.58
   1  -6   0  656.75   40.27
   1  -6   1  614.06   41.56
   1  -6   2  705.64   45.70
   1  -6   3 1105.49   54.59
   1  -6   4  956.99   52.79
   1  -6   4  956.35   53.50
   1  -6   5  659.93   24.76
   1  -6   5  927.13   55.84
   1  -6   6  498.23   54.28
   1  -6   6  327.92   23.40
   1  -6   6  342.92   22.04
   1  -6   7  431.14   25.90
   1  -6   7  423.26   25.64
   1  -6   8  338.53   25.61
   1  -6   8  274.79   25.21
   1  -5  -7  414.79   43.18
   1  -5  -6  587.14   30.64
   1  -5  -6  643.26   39.15
   1  -5  -6  636.17   37.90
   1  -5  -5  714.16   35.33
   1  -5  -5  733.26   32.00
   1  -5  -5  791.29   33.12
   1  -5  -5  714.41   34.17
   1  -5  -4 1334.73   39.16
   1  -5  -4 1438.40   43.00
   1  -5  -4 1402.80   44.45
   1  -5  -3  823.74   36.06
   1  -5  -3  814.64   37.40
   1  -5  -3  848.28   32.04
   1  -5  -2 2195.19   59.85
   1  -5  -2 2162.81   53.86
   1  -5  -1 2750.68   70.97
   1  -5  -1 2659.86   61.50
   1  -5   0  573.99   22.49
   1  -5   0  640.23   36.18
   1  -5   1 1117.74   29.88
   1  -5   1 1091.30   45.48
   1  -5   2 1645.47   55.62
   1  -5   3 1773.10   42.76
   1  -5   3 1994.27   60.83
   1  -5   3 1917.17   61.36
   1  -5   4 1431.71   38.99
   1  -5   4 1605.05   58.67
   1  -5   4 1628.89   59.31
   1  -5   5  849.16   52.30
   1  -5   6  365.22   44.60
   1  -5   6  244.74   48.18
   1  -5   6  263.09   26.64
   1  -5   7  448.79   49.09
   1  -5   7  392.58   53.33
   1  -5   7  378.85   30.49
   1  -5   8  872.18   60.25
   1  -5   8  751.37   58.53
   1  -5   8  646.82   36.67
   1  -5   9  530.90   58.81
   1  -5   9  326.38   34.26
   1  -5   9  387.85   57.85
   1  -4  -6 3357.53   68.09
   1  -4  -6 3225.60   75.35
   1  -4  -5  854.38   31.07
   1  -4  -5  587.17   25.70
   1  -4  -5  815.80   36.72
   1  -4  -5  859.65   35.46
   1  -4  -4  378.08   25.05
   1  -4  -4  197.97   22.96
   1  -4  -4  328.55   23.26
   1  -4  -4  365.44   25.31
   1  -4  -3  794.56   28.49
   1  -4  -3  764.52   29.20
   1  -4  -3  666.25   30.68
   1  -4  -2 1655.40   47.55
   1  -4  -2 1691.41   42.17
   1  -4  -2 1551.39   47.92
   1  -4  -1 2523.28   55.50
   1  -4  -1 2254.23   61.90
   1  -4   0  863.14   25.82
   1  -4   0  880.37   36.66
   1  -4   1  100.40   27.12
   1  -4   1  114.09   14.64
   1  -4   2  218.57   30.31
   1  -4   2  273.63   16.74
   1  -4   3  767.33   41.74
   1  -4   4  516.10   40.54
   1  -4   4  676.08   36.55
   1  -4   4  587.23   39.46
   1  -4   5  107.55   37.66
   1  -4   5  161.54   33.42
   1  -4   5  169.45   38.17
   1  -4   6   96.26   26.07
   1  -4   6   93.61   41.55
   1  -4   6  154.30   37.57
   1  -4   7  158.10   30.27
   1  -4   7  256.26   44.02
   1  -4   7  182.44   48.43
   1  -4   7  235.09   45.15
   1  -4   8   24.12   31.91
   1  -4   8   38.74   45.80
   1  -4   8   61.40   46.07
   1  -4   9   68.74   35.42
   1  -4   9   99.38   50.50
   1  -4   9   78.40   51.44
   1  -4  10  175.58   37.81
   1  -4  10  265.58   56.62
   1  -4  10  257.44   52.67
   1  -3  -6 2018.33   58.07
   1  -3  -4  414.66   23.97
   1  -3  -4  423.79   18.71
   1  -3  -4  427.82   28.76
   1  -3  -4  456.66   29.50
   1  -3  -3  128.55   19.42
   1  -3  -3  262.31   22.69
   1  -3  -2  202.54   21.53
   1  -3  -2  116.40   20.73
   1  -3  -2  161.21   19.16
   1  -3  -1 2626.76   58.17
   1  -3  -1 2618.39   63.16
   1  -3   0  278.55   15.72
   1  -3   0  247.44   25.43
   1  -3   1  117.07   23.55
   1  -3   2  593.53   32.16
   1  -3   3  909.55   39.00
   1  -3   4 1115.05   44.21
   1  -3   5 1405.90   52.65
   1  -3   5 1458.83   52.02
   1  -3   5 1493.46   55.14
   1  -3   6  612.56   40.84
   1  -3   6  606.77   44.96
   1  -3   7  660.38   46.27
   1  -3   7  612.37   36.38
   1  -3   7  651.54   46.50
   1  -3   7  595.24   50.07
   1  -3   8 1724.23   69.52
   1  -3   8 1824.00   65.76
   1  -3   8 1624.03   54.41
   1  -3   8 1775.96   73.15
   1  -3   9 1367.60   67.64
   1  -3   9 1360.56   52.49
   1  -3   9 1391.79   64.15
   1  -3  10 1021.94   65.94
   1  -3  10 1018.69   58.53
   1  -3  10  928.65   49.46
   1  -2  -5  620.74   32.08
   1  -2  -4  979.38   34.54
   1  -2  -4  923.93   33.20
   1  -2  -3 3857.88   51.36
   1  -2  -3 3758.53   53.59
   1  -2  -3 3569.53   53.23
   1  -2  -2  934.48   27.18
   1  -2  -2 1007.19   27.44
   1  -2  -1 2419.39   57.26
   1  -2  -1 2393.13   58.12
   1  -2  -1 2589.70   54.59
   1  -2   0 2054.72   49.57
   1  -2   1 2310.55   56.64
   1  -2   2 2595.31   63.78
   1  -2   3 2406.11   61.50
   1  -2   4 1145.19   41.12
   1  -2   5 2043.63   60.40
   1  -2   6 1409.59   52.89
   1  -2   6 1316.06   51.37
   1  -2   7  287.05   38.13
   1  -2   7  263.53   36.94
   1  -2   7  231.01   32.06
   1  -2   8  688.79   48.99
   1  -2   8  706.20   46.64
   1  -2   8  650.49   40.09
   1  -2   8  681.92   50.36
   1  -2   9  821.47   56.78
   1  -2   9  757.04   44.77
   1  -2   9  793.23   49.98
   1  -2   9  834.54   57.76
   1  -2  10  322.81   53.64
   1  -2  10  335.06   41.95
   1  -2  10  312.43   43.42
   1  -2  11  107.92   53.82
   1  -2  11  117.30   41.41
   1  -2  11  113.24   42.88
   1  -1  -4 1873.37   49.29
   1  -1  -3  577.60   26.12
   1  -1  -3  692.43   30.67
   1  -1  -2  191.95   18.76
   1  -1  -1 3559.24   71.34
   1  -1  -1 3336.21   72.04
   1  -1   0 2340.94   55.47
   1  -1   0 2568.90   55.82
   1  -1   0 2695.16   53.74
   1  -1   1  317.48   18.45
   1  -1   2   75.50   20.20
   1  -1   3  219.54   23.82
   1  -1   4  164.89   24.44
   1  -1   5   28.81   25.64
   1  -1   6   29.84   25.99
   1  -1   6   26.39   28.96
   1  -1   7   47.12   31.38
   1  -1   8   73.42   36.66
   1  -1   8   87.28   32.13
   1  -1   8   84.60   34.17
   1  -1   9  311.90   37.01
   1  -1   9  332.46   41.32
   1  -1   9  345.46   46.72
   1  -1  10  390.72   52.25
   1  -1  10  453.46   44.48
   1  -1  10  377.79   39.91
   1  -1  11  241.93   53.44
   1  -1  11  266.03   40.30
   1  -1  11  334.02   45.91
   1   0  -6  307.88   35.08
   1   0  -5  673.75   36.12
   1   0  -4  127.62   23.76
   1   0  -3  491.06   25.32
   1   0  -3  521.14   24.14
   1   0  -2  543.41   23.20
   1   0  -2  650.11   21.46
   1   0  -2  606.53   27.46
   1   0  -1   65.86   13.79
   1   0  -1   56.99    9.59
   1   0   0  310.58   10.25
   1   0   1 1248.75   28.70
   1   0   1 1280.69   28.88
   1   0   2  290.24   15.58
   1   0   3 2923.41   64.28
   1   0   3 2863.00   61.38
   1   0   4 3846.47   82.32
   1   0   4 3654.68   78.32
   1   0   5 3169.44   69.83
   1   0   5 2903.60   64.70
   1   0   6 2073.32   53.69
   1   0   7 1053.64   45.38
   1   0   7 1068.49   43.02
   1   0   8  604.44   41.51
   1   0   8  557.47   32.27
   1   0   9 1617.82   65.40
   1   0   9 1556.88   50.79
   1   0  10 1691.70   71.56
   1   0  10 1740.49   63.43
   1   0  10 1674.30   53.82
   1   0  11  895.03   41.50
   1   0  11  973.47   54.10
   1   0  12  355.29   50.05
   1   0  12  357.17   58.63
   1   0  12  274.88   32.62
   1   1  -8  314.59   46.67
   1   1  -7  410.51   42.65
   1   1  -6  795.46   43.48
   1   1  -5 1212.41   46.76
   1   1  -4 1771.52   49.41
   1   1  -4 1818.68   53.86
   1   1  -3 1940.29   50.73
   1   1  -3 1862.13   52.20
   1   1  -2 2152.90   51.69
   1   1  -2 2117.99   53.44
   1   1  -1 1498.45   37.25
   1   1  -1 1407.74   37.45
   1   1  -1 1579.28   33.35
   1   1   0 4858.57   98.26
   1   1   0 4675.43   98.87
   1   1   1 4858.14   99.41
   1   1   2  892.83   25.92
   1   1   2  866.18   27.36
   1   1   2  870.97   23.69
   1   1   3 1563.34   36.40
   1   1   3 1535.38   38.00
   1   1   4 5485.17  113.95
   1   1   4 5467.44  115.14
   1   1   5 3863.00   84.04
   1   1   5 3921.01   84.77
   1   1   6 1757.92   40.09
   1   1   6 2019.02   46.42
   1   1   6 2071.92   47.62
   1   1   7 1289.84   46.35
   1   1   7 1332.19   48.04
   1   1   8  369.85   23.98
   1   1   8  339.73   24.32
   1   1   8  379.03   33.88
   1   1   8  339.84   35.89
   1   1   9  144.23   23.25
   1   1   9  147.28   38.18
   1   1   9  155.63   23.91
   1   1  10  236.04   45.90
   1   1  10  208.75   26.37
   1   1  11   74.13   25.53
   1   1  11  119.81   46.14
   1   1  12  133.09   54.36
   1   1  12  155.55   48.15
   1   2  -9 1521.39   75.00
   1   2  -8 1417.24   68.33
   1   2  -7  390.29   44.70
   1   2  -6 1095.31   51.54
   1   2  -5 2286.57   68.55
   1   2  -5 2237.44   61.45
   1   2  -4 2280.64   64.42
   1   2  -4 2123.49   59.62
   1   2  -3  982.11   37.37
   1   2  -2 1879.15   50.44
   1   2  -1 1465.03   38.63
   1   2  -1 1546.53   38.25
   1   2  -1 1472.16   40.09
   1   2  -1 1340.76   34.48
   1   2   0  607.35   20.93
   1   2   1  148.50   16.78
   1   2   2  954.54   25.56
   1   2   3 1532.95   29.24
   1   2   3 1503.66   30.48
   1   2   3 1523.07   29.10
   1   2   4  295.54   20.60
   1   2   4  308.27   22.14
   1   2   4  345.37   27.59
   1   2   4  315.25   26.70
   1   2   5  489.33   33.23
   1   2   5  477.50   24.95
   1   2   5  541.65   25.99
   1   2   6  229.47   32.93
   1   2   6  272.89   24.50
   1   2   6  226.90   24.83
   1   2   7  127.83   37.69
   1   2   7  116.63   31.96
   1   2   7  119.82   25.30
   1   2   7   80.15   31.73
   1   2   8   60.45   32.77
   1   2   8   36.80   42.73
   1   2   8   77.02   30.51
   1   2   9  651.61   44.99
   1   2   9  556.07   54.75
   1   2   9  576.41   42.08
   1   2   9  592.48   33.22
   1   2  10 1271.22   45.21
   1   2  10 1442.97   74.01
   1   2  10 1315.26   61.88
   1   2  11  551.32   34.76
   1   2  11  671.33   70.34
   1   2  11  671.43   54.96
   1   2  11  635.87   55.61
   1   2  12  452.93   60.07
   1   2  12  517.58   75.94
   1   2  12  436.67   49.82
   1   2  13  176.47   78.21
   1   2  13  136.20   60.06
   1   3  -9  424.50   60.22
   1   3  -8  418.02   54.03
   1   3  -7  174.32   43.33
   1   3  -7  151.17   43.36
   1   3  -6   82.36   38.41
   1   3  -5   19.97   36.63
   1   3  -5   23.51   32.76
   1   3  -4  -18.54   31.24
   1   3  -3  130.39   26.86
   1   3  -2   26.47   21.09
   1   3  -2    4.91   23.80
   1   3  -2   15.98   23.29
   1   3  -2   17.30   14.07
   1   3  -1   67.35   20.86
   1   3  -1   93.87   20.50
   1   3  -1   66.51   22.04
   1   3  -1   64.28   15.61
   1   3   0  309.46   21.24
   1   3   0  341.21   21.67
   1   3   0  275.43   20.61
   1   3   1  931.92   30.33
   1   3   2  834.57   27.71
   1   3   2  827.81   26.72
   1   3   3 1184.10   33.55
   1   3   4 1616.12   40.97
   1   3   4 1553.36   44.61
   1   3   4 1708.97   45.11
   1   3   5 2030.89   54.13
   1   3   5 2110.66   54.80
   1   3   5 1957.18   55.26
   1   3   5 2173.40   56.70
   1   3   6 3145.10   77.76
   1   3   6 3036.72   74.22
   1   3   6 3253.51   74.94
   1   3   6 2814.00   69.19
   1   3   6 3162.61   77.77
   1   3   6 3036.29   75.89
   1   3   7 1635.87   56.89
   1   3   7 1551.40   48.89
   1   3   7 1732.18   48.89
   1   3   7 1532.67   55.22
   1   3   7 1529.27   52.21
   1   3   7 1465.86   45.44
   1   3   8  847.65   50.89
   1   3   8  908.48   42.80
   1   3   8  850.35   50.13
   1   3   8  873.57   43.85
   1   3   9  486.64   52.54
   1   3   9  493.52   41.23
   1   3   9  533.49   37.02
   1   3   9  492.26   51.54
   1   3   9  522.29   42.56
   1   3  10 1800.84   75.15
   1   3  10 1652.29   66.56
   1   3  10 1688.46   56.65
   1   3  10 1644.23   61.62
   1   3  10 1793.02   76.76
   1   3  10 1605.46   63.87
   1   3  11 1115.80   49.55
   1   3  11 1139.66   59.45
   1   3  11 1293.80   76.05
   1   3  11 1138.93   62.54
   1   3  11 1372.71   75.90
   1   3  12  560.59   41.13
   1   3  12  613.53   58.20
   1   3  12  686.41   74.77
   1   3  13  185.46   35.57
   1   3  13  221.00   75.87
   1   3  13  159.51   57.93
   1   4  -9   95.91   56.85
   1   4  -8  431.52   58.24
   1   4  -8  457.56   54.83
   1   4  -7  240.98   50.20
   1   4  -7  174.03   48.51
   1   4  -6  135.33   41.28
   1   4  -5  765.55   49.23
   1   4  -4 1616.40   58.69
   1   4  -3 1991.46   57.03
   1   4  -3 1941.73   61.09
   1   4  -2 1316.09   35.43
   1   4  -2 1364.77   45.87
   1   4  -2 1378.40   44.06
   1   4  -2 1414.39   47.04
   1   4  -1 1545.25   41.55
   1   4  -1 1612.46   47.65
   1   4  -1 1676.88   47.52
   1   4  -1 1503.27   48.68
   1   4   0 1970.86   52.24
   1   4   0 1825.85   51.11
   1   4   0 1905.33   48.37
   1   4   1 5202.76  110.47
   1   4   1 5587.94  115.88
   1   4   2 3317.90   77.16
   1   4   2 3313.97   74.95
   1   4   2 3221.12   73.13
   1   4   2 3374.99   76.43
   1   4   3  626.70   27.32
   1   4   3  575.12   27.42
   1   4   3  590.98   27.15
   1   4   4  764.16   28.86
   1   4   4  883.58   33.83
   1   4   4  931.27   31.32
   1   4   5 1377.51   43.22
   1   4   5 1243.99   38.24
   1   4   5 1239.74   42.47
   1   4   6 1642.94   50.29
   1   4   6 1522.77   50.04
   1   4   6 1650.58   48.97
   1   4   6 1495.52   47.75
   1   4   7 1031.66   45.42
   1   4   7  977.53   44.08
   1   4   7  998.66   43.81
   1   4   7  939.27   39.68
   1   4   7  961.39   41.28
   1   4   8  616.18   44.90
   1   4   8  610.44   36.56
   1   4   8  654.74   37.62
   1   4   8  614.95   43.82
   1   4   8  632.59   41.22
   1   4   9  221.87   44.12
   1   4   9  222.41   35.11
   1   4   9  220.13   39.19
   1   4   9  213.52   34.11
   1   4   9  187.22   43.68
   1   4  10  394.68   54.45
   1   4  10  358.33   42.71
   1   4  10  365.10   40.27
   1   4  10  293.47   38.91
   1   4  10  325.57   52.72
   1   4  10  361.64   44.76
   1   4  11  236.03   41.94
   1   4  11  292.90   48.55
   1   4  11  263.86   59.72
   1   4  11  307.47   47.84
   1   4  11  269.78   43.81
   1   4  11  339.40   61.10
   1   4  12  179.15   41.14
   1   4  12   75.16   50.03
   1   4  12  152.42   48.98
   1   4  12  209.90   64.95
   1   4  13  125.26   39.93
   1   4  13  158.02   52.99
   1   4  13  120.44   70.42
   1   5  -8 1145.10   72.08
   1   5  -8 1093.49   68.35
   1   5  -7 1101.67   67.01
   1   5  -7 1056.62   65.01
   1   5  -6  231.94   48.21
   1   5  -6  253.21   53.52
   1   5  -5  912.83   54.17
   1   5  -4 1351.62   58.23
   1   5  -3 1597.48   57.29
   1   5  -3 1538.42   58.44
   1   5  -3 1595.31   54.09
   1   5  -2  844.11   40.36
   1   5  -2  870.72   40.53
   1   5  -2  797.88   42.43
   1   5  -1  877.27   32.06
   1   5  -1  783.79   37.13
   1   5  -1  931.43   38.42
   1   5  -1  831.21   39.73
   1   5   0 1097.70   42.34
   1   5   0 1005.94   40.04
   1   5   0 1066.50   36.48
   1   5   1 1259.62   32.42
   1   5   1 1266.21   42.21
   1   5   2 1341.63   37.93
   1   5   2 1294.23   42.62
   1   5   2 1226.59   38.46
   1   5   3  157.52   27.15
   1   5   3  162.98   22.42
   1   5   3  163.04   24.52
   1   5   3  132.18   26.13
   1   5   4  303.96   25.29
   1   5   4  284.69   29.70
   1   5   4  280.96   27.53
   1   5   5  217.50   29.77
   1   5   5  154.07   24.78
   1   5   7  683.08   38.05
   1   5   7  635.91   34.80
   1   5   7  662.51   39.69
   1   5   8  174.88   33.47
   1   5   8  150.67   35.23
   1   5   8  150.83   29.79
   1   5   8  183.37   37.25
   1   5   9   84.93   40.70
   1   5   9  142.94   34.70
   1   5   9   75.26   33.46
   1   5   9  113.77   40.43
   1   5   9  107.66   39.00
   1   5  10  187.83   47.97
   1   5  10  168.87   38.73
   1   5  10  189.86   43.33
   1   5  10  226.66   34.04
   1   5  10  158.98   38.04
   1   5  10  197.93   47.74
   1   5  11  424.69   57.10
   1   5  11  335.48   47.20
   1   5  11  432.92   45.78
   1   5  11  411.78   57.77
   1   5  11  354.50   50.86
   1   5  12  428.43   48.85
   1   5  12  395.89   47.23
   1   5  12  442.02   63.10
   1   5  13  197.11   51.87
   1   5  13  210.59   67.24
   1   5  13  181.12   47.53
   1   5  14  106.73   56.49
   1   5  14  133.02   73.27
   1   5  14   97.11   45.44
   1   6  -7  207.07   57.93
   1   6  -7  196.92   62.28
   1   6  -6  111.53   52.66
   1   6  -5  166.90   50.17
   1   6  -4  111.61   42.42
   1   6  -4  135.46   40.01
   1   6  -3  177.19   24.24
   1   6  -3  187.59   40.09
   1   6  -3  202.19   38.88
   1   6  -3  208.00   36.81
   1   6  -2  120.16   25.40
   1   6  -2  192.96   35.52
   1   6  -2  187.73   37.26
   1   6  -2  174.64   35.40
   1   6  -1  130.98   31.01
   1   6  -1  107.96   34.24
   1   6  -1  120.20   31.09
   1   6   0  113.82   25.12
   1   6   0  126.24   29.90
   1   6   0  108.46   30.15
   1   6   1  432.39   30.08
   1   6   1  426.47   19.24
   1   6   2  772.01   29.56
   1   6   2  696.20   36.08
   1   6   3  796.51   37.85
   1   6   3  950.06   34.75
   1   6   3  910.16   40.31
   1   6   3  916.47   35.75
   1   6   4  383.95   29.94
   1   6   5  576.49   35.69
   1   6   5  736.50   38.80
   1   6   5  654.93   35.55
   1   6   6 1369.22   46.62
   1   6   6 1422.31   50.37
   1   6   6 1477.02   50.04
   1   6   7 1335.48   47.01
   1   6   7 1356.79   50.60
   1   6   7 1392.39   51.76
   1   6   7 1356.77   47.33
   1   6   8  599.66   42.27
   1   6   8  632.82   40.81
   1   6   8  619.70   37.44
   1   6   9  415.03   26.29
   1   6   9  431.97   38.72
   1   6   9  486.48   41.76
   1   6   9  367.71   30.64
   1   6   9  424.16   43.44
   1   6  10  319.43   41.80
   1   6  10  419.22   47.44
   1   6  10  323.39   30.40
   1   6  10  415.05   46.21
   1   6  11  385.23   46.67
   1   6  11  370.87   53.13
   1   6  11  227.15   28.54
   1   6  11  362.38   50.01
   1   6  12  230.45   48.69
   1   6  12  123.48   25.22
   1   6  13  334.66   50.34
   1   6  13  118.07   20.12
   1   6  14  235.49   51.46
   1   6  14  312.91   70.83
   1   7  -6  157.26   58.06
   1   7  -5   20.65   52.25
   1   7  -4  227.64   49.83
   1   7  -3 1135.45   41.78
   1   7  -3 1301.81   60.30
   1   7  -3 1440.51   60.29
   1   7  -3 1389.48   62.68
   1   7  -2  988.11   39.98
   1   7  -2 1074.55   53.30
   1   7  -2 1207.29   53.79
   1   7  -2 1078.18   55.52
   1   7  -1  450.06   34.96
   1   7  -1  551.76   40.39
   1   7  -1  534.00   44.85
   1   7  -1  560.55   42.25
   1   7   0  735.79   40.65
   1   7   0  876.02   44.76
   1   7   0  707.90   43.80
   1   7   1  714.27   40.04
   1   7   1  691.95   39.22
   1   7   1  702.02   38.16
   1   7   2 1345.30   48.63
   1   7   2 1361.73   48.16
   1   7   3 1277.42   47.31
   1   7   3 1346.34   42.32
   1   7   3 1256.64   48.81
   1   7   3 1230.90   44.59
   1   7   4  961.91   44.08
   1   7   4 1136.51   40.79
   1   7   4 1058.23   46.33
   1   7   4  981.68   41.17
   1   7   5  806.89   42.16
   1   7   5  938.90   42.06
   1   7   5  820.11   42.95
   1   7   5  839.53   39.98
   1   7   6  843.91   42.34
   1   7   6  961.41   43.46
   1   7   6  955.64   43.48
   1   7   6  849.72   41.09
   1   7   7  360.76   35.32
   1   7   7  536.80   40.85
   1   7   7  436.42   37.67
   1   7   7  424.21   34.89
   1   7   8  449.81   42.62
   1   7   8  338.96   40.83
   1   7   8  289.31   34.64
   1   7   9  544.44   37.76
   1   7   9  622.82   47.27
   1   7   9  503.87   41.32
   1   7   9  586.50   44.72
   1   7  10  326.66   27.03
   1   7  10  300.30   42.03
   1   7  10  274.67   43.68
   1   7  10  255.08   33.04
   1   7  10  391.15   46.67
   1   7  11  278.76   50.34
   1   7  11  224.52   45.25
   1   7  11  173.03   32.79
   1   7  11  261.33   30.33
   1   7  12   80.47   29.78
   1   7  12  155.34   33.20
   1   7  12  143.67   49.03
   1   7  13   71.87   27.63
   1   7  13  227.95   40.10
   1   7  13  198.60   51.94
   1   7  14   51.03   21.86
   1   7  14  201.53   53.04
   1   8  -5  178.08   58.02
   1   8  -4  578.30   61.06
   1   8  -3  648.30   54.32
   1   8  -3  643.91   54.08
   1   8  -3  673.33   58.00
   1   8  -3  482.13   35.73
   1   8  -2  644.21   51.54
   1   8  -2  660.61   52.54
   1   8  -2  569.66   52.68
   1   8  -2  532.67   37.55
   1   8  -1  262.57   42.50
   1   8  -1  238.09   46.16
   1   8  -1  327.44   42.13
   1   8  -1  262.84   34.58
   1   8   0  730.19   44.25
   1   8   0  725.18   42.81
   1   8   0  702.97   48.75
   1   8   0  735.61   48.31
   1   8   1  621.19   22.30
   1   8   1  769.39   46.08
   1   8   1  754.98   45.09
   1   8   2  249.08   36.60
   1   8   2  274.13   37.29
   1   8   2  269.40   24.02
   1   8   3  283.66   38.81
   1   8   3  220.21   34.76
   1   8   4  288.67   38.44
   1   8   4  271.93   32.03
   1   8   4  214.69   36.60
   1   8   5  404.24   41.14
   1   8   5  428.09   35.28
   1   8   5  358.87   38.33
   1   8   5  295.74   36.07
   1   8   6  166.44   36.70
   1   8   6  253.31   35.58
   1   8   6  255.96   37.10
   1   8   6  193.81   38.01
   1   8   7  352.61   41.13
   1   8   7  272.59   37.32
   1   8   7  315.32   41.01
   1   8   7  170.32   39.08
   1   8   8  281.84   38.63
   1   8   8  355.81   42.39
   1   8   8  318.06   42.30
   1   8   9  101.14   37.13
   1   8   9   85.12   35.99
   1   8   9   89.70   41.99
   1   8   9  138.04   43.46
   1   8  10   92.71   39.59
   1   8  10   70.16   34.31
   1   8  10  153.88   44.01
   1   8  10  107.22   44.80
   1   8  11  158.99   44.20
   1   8  11  140.27   35.14
   1   8  11  154.76   49.97
   1   8  12  122.92   34.17
   1   8  12  202.24   50.08
   1   8  13  118.81   32.17
   1   8  13   32.40   31.36
   1   9  -4  138.01   56.66
   1   9  -4   84.85   57.46
   1   9  -3  126.46   54.71
   1   9  -3  154.58   34.42
   1   9  -2  243.59   51.39
   1   9  -2  194.11   50.98
   1   9  -2  170.35   36.69
   1   9  -1  222.03   46.41
   1   9  -1  160.17   44.47
   1   9  -1  121.20   48.60
   1   9  -1  157.74   36.85
   1   9   0  105.13   44.98
   1   9   0   65.33   44.47
   1   9   0  156.66   40.75
   1   9   0   98.25   38.33
   1   9   1  135.83   43.46
   1   9   1  101.98   40.08
   1   9   1  157.00   39.16
   1   9   2  224.20   41.32
   1   9   2  239.32   37.77
   1   9   3  178.90   38.94
   1   9   3  246.00   40.27
   1   9   3  225.47   29.15
   1   9   4  335.10   42.29
   1   9   4  440.24   44.49
   1   9   4  476.23   36.19
   1   9   5  143.37   40.37
   1   9   5  322.08   44.05
   1   9   5  254.76   37.42
   1   9   6  140.80   37.74
   1   9   6   67.30   40.60
   1   9   6  185.87   42.74
   1   9   7   81.42   38.64
   1   9   7   13.95   39.06
   1   9   7  141.27   41.65
   1   9   7   14.32   41.47
   1   9   8  310.69   45.01
   1   9   8  294.39   42.76
   1   9   8  310.60   46.62
   1   9   9  416.20   43.20
   1   9   9  332.05   46.38
   1   9   9  380.80   43.68
   1   9   9  345.94   48.76
   1   9  10  214.78   43.17
   1   9  10  220.64   40.54
   1   9  10  252.92   48.59
   1   9  10  238.66   50.08
   1   9  11  203.76   40.74
   1   9  11  312.79   45.20
   1   9  11  273.67   50.67
   1   9  12  212.41   48.57
   1   9  12  221.28   39.25
   1   9  13  121.31   37.20
   1  10  -3  185.65   59.91
   1  10  -3  129.41   36.16
   1  10  -2  534.78   60.13
   1  10  -2  503.39   61.09
   1  10  -2  412.95   42.75
   1  10  -1  493.58   57.46
   1  10  -1  433.30   58.13
   1  10  -1  408.59   43.22
   1  10   0  220.21   43.27
   1  10   0  181.11   52.23
   1  10   0  268.43   51.90
   1  10   1  265.27   44.63
   1  10   1  253.69   49.65
   1  10   1  236.22   47.80
   1  10   1  297.61   43.33
   1  10   2  435.21   46.72
   1  10   2  361.98   23.56
   1  10   2  446.32   46.19
   1  10   2  480.34   48.55
   1  10   3  527.00   48.20
   1  10   3  372.34   31.33
   1  10   4  419.80   46.31
   1  10   4  358.77   48.79
   1  10   4  448.10   35.60
   1  10   5  657.48   52.01
   1  10   5  629.19   52.73
   1  10   5  705.16   43.96
   1  10   6  515.69   48.77
   1  10   6  594.08   52.24
   1  10   6  487.27   45.03
   1  10   6  621.61   46.41
   1  10   7  251.26   43.93
   1  10   7  331.52   46.73
   1  10   7  284.93   47.91
   1  10   8  161.87   44.33
   1  10   8  138.90   46.13
   1  10   9  202.84   46.31
   1  10   9  219.20   47.69
   1  10   9  186.13   48.09
   1  10  10  347.11   47.98
   1  10  10  379.17   48.91
   1  10  10  373.89   53.22
   1  10  11  281.44   50.20
   1  10  11  294.94   45.56
   1  10  12  150.49   43.37
   1  10  13   64.31   40.34
   1  11  -1  211.18   58.49
   1  11  -1  171.21   59.50
   1  11  -1  199.95   44.09
   1  11   0  426.98   58.31
   1  11   0  297.29   58.36
   1  11   0  362.53   47.65
   1  11   1  487.67   56.70
   1  11   1  364.20   54.38
   1  11   1  353.84   49.39
   1  11   2  272.50   49.99
   1  11   2  291.97   51.31
   1  11   2  314.12   51.61
   1  11   3  174.06   49.60
   1  11   3  184.12   27.84
   1  11   3  175.16   45.97
   1  11   3  201.10   50.81
   1  11   4  111.64   49.08
   1  11   4  127.19   35.49
   1  11   5  222.02   48.80
   1  11   5  280.83   51.31
   1  11   5  286.48   41.00
   1  11   6  335.19   52.42
   1  11   6  313.99   52.32
   1  11   6  404.71   46.39
   1  11   7  143.02   44.48
   1  11   7   74.41   47.04
   1  11   7  129.56   50.25
   1  11   7  132.90   45.97
   1  11   8   31.58   46.00
   1  11   8   30.16   48.05
   1  11   9   45.90   46.42
   1  11  10   54.24   48.91
   1  11  10   -0.82   46.62
   1  11  11   50.01   49.81
   1  11  11    0.40   47.66
   1  11  12   39.93   46.10
   1  12   1  148.88   49.01
   1  12   1  132.00   56.95
   1  12   1  125.60   57.78
   1  12   2   97.37   50.20
   1  12   2   21.72   54.01
   1  12   2   75.05   51.76
   1  12   3   76.06   51.90
   1  12   3   21.30   24.72
   1  12   3   36.91   53.18
   1  12   3  141.32   49.61
   1  12   4   54.24   52.60
   1  12   4  125.35   52.61
   1  12   4  101.64   33.05
   1  12   5  100.74   52.20
   1  12   5  162.32   40.27
   1  12   6   28.61   53.40
   1  12   6  155.29   45.34
   1  12   7   48.32   53.71
   1  12   7  174.73   48.38
   1  12   8  220.74   50.32
   1  12   9  183.32   52.94
   1  12  10   75.12   50.92
   1  12  11  131.63   52.66
   1  13   4   90.45   55.94
   1  13   4  147.25   52.53
   1  13   4   97.97   29.07
   1  13   5   92.06   57.25
   1  13   5  225.38   39.03
   1  13   6  438.59   65.87
   1  13   6  548.95   49.38
   1  13   7  453.16   63.63
   1  13   7  583.94   52.26
   1  13   8  363.82   54.82
   2 -13  -7  338.89   53.70
   2 -13  -6  452.07   62.71
   2 -13  -5  121.06   67.96
   2 -12 -10  111.48   50.01
   2 -12 -10   93.62   40.52
   2 -12  -9   72.62   50.35
   2 -12  -9   67.12   40.46
   2 -12  -8   70.57   52.32
   2 -12  -8  192.95   59.21
   2 -12  -7  104.40   54.72
   2 -12  -7   80.42   47.30
   2 -12  -6  128.44   52.84
   2 -12  -5  106.28   62.74
   2 -12  -4   87.98   68.82
   2 -12  -3  294.11   70.88
   2 -11 -11   41.37   42.40
   2 -11 -11   70.84   40.06
   2 -11 -10   28.53   45.22
   2 -11 -10  -40.80   39.75
   2 -11  -9  -17.86   57.79
   2 -11  -9   15.62   45.67
   2 -11  -9   22.88   38.19
   2 -11  -8   -3.77   48.75
   2 -11  -8   22.68   54.01
   2 -11  -7   64.59   49.56
   2 -11  -7   58.50   41.82
   2 -11  -6  149.32   47.90
   2 -11  -5  243.00   47.77
   2 -11  -5  220.17   56.58
   2 -11  -4   48.28   44.52
   2 -11  -4   32.53   52.04
   2 -11  -4   13.06   64.18
   2 -11  -3   66.53   44.43
   2 -11  -3   75.25   54.08
   2 -11  -2  551.14   69.35
   2 -10 -12   72.00   22.60
   2 -10 -11  132.97   35.57
   2 -10 -11  200.39   42.51
   2 -10 -10  134.36   41.15
   2 -10 -10  196.18   40.53
   2 -10  -9  187.67   56.63
   2 -10  -9  138.39   36.93
   2 -10  -9   34.04   41.44
   2 -10  -8  202.36   37.98
   2 -10  -8  318.42   52.30
   2 -10  -8  192.23   45.74
   2 -10  -7  327.52   48.41
   2 -10  -7  266.28   48.64
   2 -10  -7  461.90   49.06
   2 -10  -6  517.64   45.20
   2 -10  -5  589.57   55.38
   2 -10  -4  292.82   43.42
   2 -10  -4  232.67   50.03
   2 -10  -4  200.27   61.53
   2 -10  -3  374.01   42.43
   2 -10  -3  304.02   52.84
   2 -10  -2  396.19   41.31
   2 -10  -2  401.19   56.04
   2 -10  -1  382.68   38.77
   2 -10  -1  461.26   57.36
   2 -10   0  299.05   34.55
   2  -9 -11  155.33   25.35
   2  -9 -10  364.52   42.06
   2  -9 -10  260.43   35.49
   2  -9  -9  279.05   55.71
   2  -9  -9  273.01   38.25
   2  -9  -9  224.45   38.23
   2  -9  -8  263.33   35.57
   2  -9  -8  323.59   49.79
   2  -9  -8  275.98   42.15
   2  -9  -8  261.73   50.09
   2  -9  -7  445.03   46.15
   2  -9  -7  405.27   44.60
   2  -9  -7  466.41   46.28
   2  -9  -6  159.85   41.23
   2  -9  -6  197.23   37.24
   2  -9  -4  129.26   45.44
   2  -9  -3   66.17   43.19
   2  -9  -2  228.55   35.99
   2  -9  -2  210.52   46.81
   2  -9  -1   49.14   46.62
   2  -9  -1  121.39   33.52
   2  -9   0  103.49   48.35
   2  -9   0   22.19   30.98
   2  -9   1   85.76   50.66
   2  -9   1   76.62   27.63
   2  -9   2  217.36   54.91
   2  -9   2  104.92   24.27
   2  -8 -10   76.57   42.12
   2  -8 -10   22.66   23.73
   2  -8  -9   45.09   37.34
   2  -8  -9   66.64   30.68
   2  -8  -8   45.64   41.54
   2  -8  -8   93.70   44.17
   2  -8  -8  108.20   45.45
   2  -8  -8  131.79   32.89
   2  -8  -8   61.70   33.49
   2  -8  -7   53.58   39.28
   2  -8  -7  114.46   31.09
   2  -8  -7  199.43   42.12
   2  -8  -7  236.77   42.23
   2  -8  -7   81.07   36.09
   2  -8  -6  148.66   37.13
   2  -8  -5  425.73   39.42
   2  -8  -5  339.49   41.78
   2  -8  -4  240.69   35.31
   2  -8  -4  151.05   39.97
   2  -8  -3  125.53   40.00
   2  -8  -2  156.68   40.82
   2  -8  -2  323.23   45.95
   2  -8  -1  311.26   31.17
   2  -8  -1  361.61   44.17
   2  -8   0  612.33   33.55
   2  -8   0  627.15   51.25
   2  -8   1  431.34   31.59
   2  -8   1  507.73   49.68
   2  -8   2  200.58   48.70
   2  -8   2   83.98   25.14
   2  -8   3  169.17   51.59
   2  -8   3   73.99   22.59
   2  -8   4  557.43   59.38
   2  -7  -9  447.27   41.77
   2  -7  -9  291.81   24.44
   2  -7  -8  196.12   38.43
   2  -7  -8  259.05   35.13
   2  -7  -8  330.50   51.10
   2  -7  -8  121.86   27.53
   2  -7  -8  230.45   47.97
   2  -7  -7  383.48   41.34
   2  -7  -7  241.96   31.48
   2  -7  -7  313.21   37.50
   2  -7  -7  386.67   40.78
   2  -7  -6  343.17   37.50
   2  -7  -6  281.47   35.76
   2  -7  -6  299.95   34.29
   2  -7  -5  869.99   40.06
   2  -7  -5  778.71   42.17
   2  -7  -4 1031.62   44.13
   2  -7  -4  932.03   40.92
   2  -7  -4  857.12   46.45
   2  -7  -3  576.59   46.86
   2  -7  -3  501.06   34.50
   2  -7  -3  489.16   39.70
   2  -7  -2  930.44   48.94
   2  -7  -2  767.12   44.53
   2  -7  -2  704.56   36.16
   2  -7  -1  970.53   48.90
   2  -7   0  716.83   46.02
   2  -7   1  464.64   43.87
   2  -7   1  401.22   26.64
   2  -7   2  771.06   51.28
   2  -7   2  681.95   30.54
   2  -7   3  369.80   48.54
   2  -7   3  386.85   25.30
   2  -7   4  815.14   58.04
   2  -7   4  597.91   28.23
   2  -7   5  180.22   23.79
   2  -7   6  125.87   22.71
   2  -7   7   68.91   19.77
   2  -6  -9  458.81   45.38
   2  -6  -8  414.82   50.19
   2  -6  -8  403.41   39.68
   2  -6  -8  266.00   21.30
   2  -6  -7  635.50   48.00
   2  -6  -7  520.92   30.40
   2  -6  -7  617.64   38.64
   2  -6  -7  623.60   43.04
   2  -6  -6  582.77   38.35
   2  -6  -6  591.95   35.77
   2  -6  -6  579.58   38.15
   2  -6  -5  255.02   30.45
   2  -6  -5  292.87   31.17
   2  -6  -5  386.32   29.92
   2  -6  -4  541.77   31.99
   2  -6  -4  498.08   30.94
   2  -6  -4  439.84   33.12
   2  -6  -3  494.41   37.50
   2  -6  -3  470.36   29.98
   2  -6  -3  415.75   36.08
   2  -6  -2 1109.78   47.36
   2  -6  -2  958.22   43.95
   2  -6  -2  963.04   37.43
   2  -6  -1  814.11   43.11
   2  -6  -1  832.80   32.71
   2  -6   0  253.67   35.23
   2  -6   1  128.81   34.87
   2  -6   2  475.52   26.26
   2  -6   3  663.52   29.86
   2  -6   4  238.79   24.07
   2  -6   4  216.89   45.66
   2  -6   4  370.82   43.57
   2  -6   5  310.24   26.15
   2  -6   5  327.19   50.45
   2  -6   5  363.81   48.41
   2  -6   6   77.08   27.09
   2  -6   7  177.01   54.00
   2  -6   7   94.79   28.67
   2  -6   7   97.09   29.34
   2  -6   8   54.51   29.66
   2  -6   8   85.82   30.43
   2  -5  -8   50.48   36.68
   2  -5  -7  272.44   44.62
   2  -5  -7  190.06   32.30
   2  -5  -5  227.94   28.72
   2  -5  -5   97.23   24.09
   2  -5  -5  213.10   27.62
   2  -5  -4  349.64   27.34
   2  -5  -4  424.74   30.42
   2  -5  -4  394.42   28.38
   2  -5  -3  134.79   29.56
   2  -5   0  539.56   34.59
   2  -5   0  425.10   23.18
   2  -5   1 1215.13   46.94
   2  -5   1 1144.12   34.98
   2  -5   2  594.15   39.83
   2  -5   3  227.95   36.17
   2  -5   3  298.24   33.62
   2  -5   4  392.14   26.60
   2  -5   4  445.64   43.21
   2  -5   4  459.00   41.58
   2  -5   5  831.75   33.74
   2  -5   5  875.79   51.44
   2  -5   5  858.05   52.66
   2  -5   6  802.59   50.69
   2  -5   6  689.31   54.77
   2  -5   7  788.59   54.62
   2  -5   7  667.16   57.13
   2  -5   8  489.79   54.48
   2  -5   8  421.27   35.67
   2  -5   8  502.48   56.63
   2  -5   9  751.38   61.33
   2  -5   9  676.41   63.25
   2  -5   9  483.66   39.79
   2  -4  -7  462.33   38.30
   2  -4  -7  466.48   37.87
   2  -4  -6  681.60   35.32
   2  -4  -5  895.28   34.02
   2  -4  -5  911.71   38.56
   2  -4  -5  770.24   27.48
   2  -4  -5  849.31   39.49
   2  -4  -4 1093.75   35.54
   2  -4  -4 1100.06   36.50
   2  -4  -4 1065.82   35.10
   2  -4  -3  997.15   35.14
   2  -4  -3 1083.33   36.57
   2  -4  -3 1010.49   34.66
   2  -4  -2  943.44   33.34
   2  -4  -2 1126.95   40.27
   2  -4  -2 1100.61   39.08
   2  -4  -1  904.64   31.52
   2  -4  -1 1138.87   45.21
   2  -4  -1 1057.29   38.49
   2  -4   0  757.58   35.12
   2  -4   0  703.78   27.29
   2  -4   1 1145.09   42.24
   2  -4   1 1098.42   31.82
   2  -4   2 1586.25   51.63
   2  -4   2 1515.79   40.65
   2  -4   3 2868.28   78.45
   2  -4   3 2898.16   66.24
   2  -4   4 2075.08   62.91
   2  -4   4 2046.01   66.22
   2  -4   4 2162.01   66.49
   2  -4   5 1290.51   52.11
   2  -4   5 1327.51   55.29
   2  -4   5 1359.77   57.05
   2  -4   6  600.84   43.90
   2  -4   6  455.15   47.86
   2  -4   7  613.37   49.07
   2  -4   7  598.24   52.02
   2  -4   7  566.31   53.37
   2  -4   8  631.72   54.34
   2  -4   8  498.96   38.69
   2  -4   8  665.39   55.55
   2  -4   9  733.27   59.12
   2  -4   9  780.06   59.11
   2  -4   9  559.64   41.80
   2  -4  10  215.68   39.83
   2  -4  10  249.12   54.68
   2  -4  10  235.34   53.48
   2  -3  -7 1212.43   47.94
   2  -3  -6 1572.11   52.32
   2  -3  -6 1511.08   50.68
   2  -3  -5 1002.06   37.34
   2  -3  -5  968.15   37.79
   2  -3  -4  858.81   31.89
   2  -3  -4  736.96   32.33
   2  -3  -4  573.36   21.94
   2  -3  -4  801.80   34.88
   2  -3  -3 1339.42   37.48
   2  -3  -3 1440.60   38.37
   2  -3  -3 1236.27   36.28
   2  -3  -2 1555.85   43.30
   2  -3  -2 1428.76   43.07
   2  -3  -2 1598.58   40.51
   2  -3  -1 1238.39   43.09
   2  -3  -1 1323.08   41.09
   2  -3  -1 1364.19   35.61
   2  -3   0 1673.27   41.42
   2  -3   0 1598.50   47.94
   2  -3   1  555.97   22.11
   2  -3   2  130.68   28.47
   2  -3   4 1404.15   50.70
   2  -3   5  251.81   34.42
   2  -3   5  323.21   32.17
   2  -3   5  331.74   37.95
   2  -3   6   31.90   36.33
   2  -3   6  107.96   32.15
   2  -3   7   98.93   41.18
   2  -3   7  102.82   37.16
   2  -3   8  172.71   46.87
   2  -3   8  180.45   43.00
   2  -3   8  188.68   47.38
   2  -3   9   51.79   37.61
   2  -3   9   98.73   46.29
   2  -3   9   93.92   47.61
   2  -3  10  121.29   40.91
   2  -3  10  156.37   50.54
   2  -3  10  141.62   47.84
   2  -2  -6  772.82   38.69
   2  -2  -4  145.07   23.71
   2  -2  -4  173.38   25.10
   2  -2  -3  251.20   20.90
   2  -2  -3  299.66   23.75
   2  -2  -3  226.27   14.81
   2  -2  -3  203.88   24.25
   2  -2  -1  217.20   21.99
   2  -2  -1  253.56   22.78
   2  -2   0  258.73   17.57
   2  -2   0  250.98   23.03
   2  -2   0  254.15   27.00
   2  -2   1  270.06   19.50
   2  -2   1  246.83   24.46
   2  -2   1  271.79   23.24
   2  -2   2 1127.46   35.99
   2  -2   2 1175.25   40.08
   2  -2   2 1183.64   38.91
   2  -2   3 1381.46   43.47
   2  -2   3 1269.22   44.79
   2  -2   3 1345.23   45.15
   2  -2   4 2382.22   65.73
   2  -2   5 1510.62   52.03
   2  -2   6 1517.56   55.10
   2  -2   6 1629.44   57.09
   2  -2   6 1639.30   56.88
   2  -2   7  394.06   37.53
   2  -2   7  379.22   39.38
   2  -2   8 1135.66   55.60
   2  -2   8 1213.97   54.34
   2  -2   8 1160.81   57.98
   2  -2   9 1569.35   68.64
   2  -2   9 1528.50   58.22
   2  -2   9 1721.03   63.34
   2  -2   9 1555.67   69.02
   2  -2  10 1119.88   65.51
   2  -2  10 1068.74   53.61
   2  -2  10 1185.03   56.60
   2  -2  11  363.42   56.96
   2  -2  11  377.99   45.43
   2  -2  11  352.78   47.81
   2  -1  -5  995.44   38.44
   2  -1  -4  704.28   30.56
   2  -1  -4  763.06   36.60
   2  -1  -3 1090.74   34.91
   2  -1  -3 1220.82   39.18
   2  -1  -2 3768.39   81.66
   2  -1  -2 4040.81   86.27
   2  -1  -2 4005.30   84.33
   2  -1  -1 2847.11   62.34
   2  -1   0 7133.03  153.11
   2  -1   0 7578.23  152.28
   2  -1   1 1653.84   38.29
   2  -1   1 1716.28   39.01
   2  -1   1 1565.78   41.42
   2  -1   1 1719.91   40.69
   2  -1   1 1331.89   42.56
   2  -1   2 3543.86   78.73
   2  -1   2 3363.82   79.01
   2  -1   2 3554.96   79.19
   2  -1   3 2523.87   62.68
   2  -1   3 2517.71   63.40
   2  -1   4 6856.47  148.88
   2  -1   5 4313.16  100.52
   2  -1   6 2525.72   68.78
   2  -1   7  524.65   38.27
   2  -1   8  455.29   38.16
   2  -1   8  446.61   40.69
   2  -1   9  904.93   47.70
   2  -1   9  973.46   47.74
   2  -1   9  900.30   54.58
   2  -1  10  514.91   52.56
   2  -1  10  576.25   53.72
   2  -1  10  540.71   46.48
   2  -1  10  572.37   44.30
   2  -1  11  148.76   45.08
   2  -1  11  101.09   50.95
   2  -1  11  109.43   41.26
   2  -1  12   19.65   46.01
   2  -1  12  -16.33   54.08
   2  -1  12   40.68   39.25
   2  -1  12   36.17   57.38
   2   0  -5 2124.23   59.11
   2   0  -4 2156.68   58.84
   2   0  -4 2283.68   56.71
   2   0  -3 1294.65   41.86
   2   0  -3 1068.10   36.04
   2   0  -3 1178.20   34.18
   2   0  -2 3583.90   78.51
   2   0  -2 3922.50   83.18
   2   0  -2 3509.51   79.21
   2   0  -1 3538.70   80.97
   2   0  -1 3817.55   78.85
   2   0   0 7888.56  166.03
   2   0   0 8432.74  166.74
   2   0   1 3950.17   83.35
   2   0   1 3913.92   85.26
   2   0   1 4221.89   85.70
   2   0   2  424.08   20.15
   2   0   2  364.24   20.30
   2   0   3  115.91   20.67
   2   0   3  102.20   20.42
   2   0   4 1367.02   41.60
   2   0   4 1293.67   38.33
   2   0   5 1089.38   36.73
   2   0   6   74.51   24.82
   2   0   7  122.17   28.88
   2   0   8   78.04   33.11
   2   0   8   70.31   29.29
   2   0   9  137.62   39.00
   2   0   9   85.03   32.12
   2   0  10  154.11   43.47
   2   0  10  179.33   45.34
   2   0  10  154.11   35.50
   2   0  11  309.42   38.06
   2   0  11  312.60   46.92
   2   0  12  160.74   47.02
   2   0  12  107.34   35.18
   2   0  12  191.31   57.07
   2   1  -7  141.90   41.83
   2   1  -6  290.53   38.15
   2   1  -5  433.01   35.19
   2   1  -4   75.38   26.73
   2   1  -4  104.83   23.24
   2   1  -3   76.90   26.83
   2   1  -3   30.60   22.15
   2   1  -3   66.04   20.00
   2   1  -2   86.16   23.93
   2   1  -2   41.53   19.83
   2   1  -2  105.68   16.68
   2   1  -1  157.18   17.15
   2   1   0 1666.82   41.96
   2   1   1  382.23   18.42
   2   1   1  264.30   15.82
   2   1   2  170.85   16.74
   2   1   2  184.78   15.90
   2   1   2  166.58   16.01
   2   1   2  150.82   18.36
   2   1   3 1464.87   37.22
   2   1   3 1282.81   36.48
   2   1   3 1480.11   38.90
   2   1   4 2530.99   59.36
   2   1   4 2515.26   59.81
   2   1   4 2739.75   63.99
   2   1   5 3520.46   76.97
   2   1   5 3281.81   76.15
   2   1   6 2460.06   58.52
   2   1   6 2308.23   57.30
   2   1   8  415.51   25.92
   2   1   8  518.27   36.89
   2   1   9 2073.72   68.91
   2   1   9 1921.35   55.05
   2   1  10 1250.79   60.14
   2   1  10 1160.49   43.04
   2   1  11 1125.39   43.97
   2   1  11 1221.07   56.68
   2   1  11 1196.77   64.55
   2   1  12  554.04   50.92
   2   1  12  491.97   34.89
   2   1  12  586.60   60.17
   2   1  13  360.30   79.90
   2   1  13  321.12   61.20
   2   2  -8  154.74   48.51
   2   2  -7   93.66   43.80
   2   2  -6  481.14   44.73
   2   2  -5 1223.03   51.67
   2   2  -5 1316.38   52.10
   2   2  -4 2860.54   76.66
   2   2  -4 2982.81   78.13
   2   2  -3 1396.06   48.00
   2   2  -3 1521.84   38.98
   2   2  -3 1450.92   48.50
   2   2  -2  683.05   30.27
   2   2  -2  705.37   34.03
   2   2  -1 3290.83   74.30
   2   2  -1 3292.04   74.95
   2   2   0 6171.88  129.80
   2   2   0 6266.31  129.95
   2   2   1 9634.65  192.51
   2   2   1 9107.09  191.59
   2   2   2 1285.92   30.71
   2   2   3 2460.50   53.48
   2   2   3 2535.07   58.93
   2   2   3 2510.65   59.51
   2   2   3 2599.24   58.95
   2   2   4 1676.14   48.32
   2   2   4 1660.81   48.85
   2   2   4 1661.85   44.25
   2   2   5 5034.34  112.81
   2   2   5 4967.47  108.77
   2   2   6 2411.24   67.05
   2   2   6 2427.21   60.45
   2   2   7 2000.97   64.10
   2   2   7 2073.70   54.17
   2   2   8  335.17   33.39
   2   2   9  751.19   45.36
   2   2   9  826.32   55.79
   2   2   9  780.56   44.54
   2   2   9  689.19   34.66
   2   2  10 1035.73   54.37
   2   2  10 1206.28   67.23
   2   2  10  995.10   52.06
   2   2  10  821.88   40.27
   2   2  11  204.90   32.15
   2   2  11  301.30   48.72
   2   2  11  262.80   49.85
   2   2  11  376.40   64.93
   2   2  12  339.96   72.19
   2   2  12  216.22   54.46
   2   2  12  214.00   47.33
   2   2  13   87.04   75.90
   2   2  13   67.79   56.40
   2   3  -7  483.49   50.67
   2   3  -6 1070.35   56.45
   2   3  -5 2504.08   76.57
   2   3  -5 2461.77   71.85
   2   3  -4 3131.77   83.27
   2   3  -4 2934.88   79.43
   2   3  -3 2790.23   74.12
   2   3  -2  791.94   35.62
   2   3  -2  829.11   34.99
   2   3  -1 1969.65   50.54
   2   3  -1 1954.13   46.14
   2   3  -1 1966.23   51.47
   2   3  -1 1798.11   40.13
   2   3   0 1201.81   33.67
   2   3   0 1025.02   26.05
   2   3   0 1212.01   34.85
   2   3   1 1390.95   38.47
   2   3   2  846.21   28.20
   2   3   2  834.23   30.43
   2   3   3  738.37   25.62
   2   3   4   96.35   16.08
   2   3   4  161.87   24.70
   2   3   4  155.02   22.28
   2   3   5  618.28   34.38
   2   3   5  425.82   20.23
   2   3   5  485.57   29.66
   2   3   5  576.90   32.78
   2   3   6  240.83   28.22
   2   3   6  413.17   34.48
   2   3   7  147.72   28.02
   2   3   7  194.49   35.19
   2   3   8   70.97   28.60
   2   3   8  118.09   29.47
   2   3   8  111.54   40.84
   2   3   8   73.61   38.97
   2   3   9   52.93   36.73
   2   3   9   72.13   44.73
   2   3   9  133.42   33.34
   2   3   9   90.17   45.04
   2   3  10  229.23   33.96
   2   3  10  211.47   42.95
   2   3  10  247.90   54.38
   2   3  10  229.77   40.59
   2   3  10  244.28   41.79
   2   3  10  426.84   56.81
   2   3  11  280.08   37.68
   2   3  11  260.22   46.16
   2   3  11  416.01   63.39
   2   3  11  331.99   49.08
   2   3  11  299.06   46.08
   2   3  11  414.11   61.64
   2   3  12  195.38   37.13
   2   3  12  277.46   68.76
   2   3  12  248.77   49.90
   2   3  13   99.59   34.08
   2   3  13  166.06   74.17
   2   3  13  104.01   54.31
   2   4  -7  191.69   51.50
   2   4  -7  161.63   49.85
   2   4  -6  138.61   45.48
   2   4  -5  184.37   41.90
   2   4  -4   18.02   35.74
   2   4  -3   13.30   31.27
   2   4  -2   60.21   27.24
   2   4  -2   52.31   26.97
   2   4  -1   80.48   23.26
   2   4  -1   72.23   20.10
   2   4  -1  105.90   25.94
   2   4  -1   33.78   25.06
   2   4   0  260.13   23.63
   2   4   0  323.82   25.69
   2   4   0  236.18   24.54
   2   4   1  918.75   33.96
   2   4   2 1604.48   44.49
   2   4   2 1634.38   46.09
   2   4   3  462.54   25.95
   2   4   3  505.81   28.86
   2   4   4  320.01   22.12
   2   4   5  643.57   26.86
   2   4   5  620.99   33.05
   2   4   6  794.60   28.99
   2   4   6  864.59   38.58
   2   4   6  955.07   39.66
   2   4   7 1500.39   50.75
   2   4   7 1521.59   52.30
   2   4   7 1402.94   51.49
   2   4   8 1304.69   52.99
   2   4   8 1358.15   53.64
   2   4   8 1390.41   49.30
   2   4   8 1314.34   34.73
   2   4   8 1246.10   51.06
   2   4   9  313.32   35.98
   2   4   9  337.30   44.25
   2   4   9  310.66   31.23
   2   4   9  324.90   43.72
   2   4   9  308.14   39.84
   2   4  10  926.87   58.21
   2   4  10  833.81   49.76
   2   4  10  913.61   46.91
   2   4  10  857.29   43.55
   2   4  10  861.75   57.28
   2   4  10  878.41   53.19
   2   4  11 1033.59   65.41
   2   4  11  879.15   54.77
   2   4  11  880.56   49.48
   2   4  11  844.58   48.19
   2   4  11  962.53   66.05
   2   4  11  897.77   56.38
   2   4  12  642.08   46.99
   2   4  12  635.06   52.46
   2   4  12  738.83   69.87
   2   4  12  680.26   57.09
   2   4  13  359.13   73.54
   2   4  13  293.34   52.47
   2   4  13  312.15   43.67
   2   4  14  303.49   77.71
   2   4  14  258.27   60.40
   2   4  14  234.30   42.60
   2   5  -8  157.67   60.53
   2   5  -7  178.28   60.05
   2   5  -6  188.02   49.06
   2   5  -6  166.24   56.25
   2   5  -5  196.77   46.47
   2   5  -4  888.22   52.41
   2   5  -3 1497.94   58.68
   2   5  -2 1162.30   46.82
   2   5  -2 1112.65   44.47
   2   5  -2 1136.42   48.26
   2   5  -1  888.25   32.22
   2   5  -1  771.15   37.92
   2   5  -1  976.94   39.79
   2   5  -1  901.85   42.03
   2   5   0 1887.72   53.93
   2   5   0 1716.53   53.61
   2   5   0 1678.65   48.69
   2   5   1 1883.63   51.65
   2   5   2 2767.07   70.27
   2   5   3 1771.19   50.13
   2   5   3 1793.91   52.22
   2   5   4 1018.84   36.31
   2   5   5  918.82   34.72
   2   5   6 1559.43   45.75
   2   5   6 1757.30   52.96
   2   5   7  745.67   30.70
   2   5   7  804.06   41.21
   2   5   7  821.07   40.63
   2   5   8  877.13   43.93
   2   5   8  922.67   45.68
   2   5   8  801.03   45.51
   2   5   9  321.94   42.18
   2   5   9  278.17   38.84
   2   5   9  243.43   39.99
   2   5   9  276.87   26.10
   2   5   9  284.06   22.28
   2   5   9  332.91   41.91
   2   5  10  381.49   48.46
   2   5  10  307.68   40.98
   2   5  10  348.73   47.98
   2   5  10  330.52   30.07
   2   5  10  250.22   21.44
   2   5  10  325.47   43.94
   2   5  11  588.67   56.59
   2   5  11  388.56   46.09
   2   5  11  438.61   46.14
   2   5  11  458.22   37.72
   2   5  11  505.52   55.28
   2   5  11  415.99   50.27
   2   5  12  152.93   44.80
   2   5  12  164.41   51.42
   2   5  12  159.73   42.57
   2   5  12  195.99   59.63
   2   5  13  136.53   47.33
   2   5  13  179.35   65.99
   2   5  13  102.40   45.73
   2   5  14  120.46   52.94
   2   5  14  210.70   71.94
   2   5  14  105.61   45.40
   2   6  -7  879.78   72.61
   2   6  -6  393.60   57.12
   2   6  -6  418.42   63.36
   2   6  -5  220.99   49.99
   2   6  -4  768.15   54.19
   2   6  -3  980.87   54.81
   2   6  -2  867.22   36.15
   2   6  -2  908.00   47.84
   2   6  -2  946.73   49.35
   2   6  -2  942.32   47.11
   2   6  -1  754.08   40.32
   2   6  -1  787.08   42.37
   2   6  -1  713.95   44.51
   2   6   0  432.58   29.17
   2   6   0  387.26   31.49
   2   6   0  461.88   34.02
   2   6   0  379.12   35.20
   2   6   1  397.37   30.81
   2   6   2  351.43   23.22
   2   6   2  389.33   32.43
   2   6   3  521.83   34.40
   2   6   3  437.21   29.67
   2   6   3  481.80   32.46
   2   6   4  541.25   35.22
   2   6   4  494.20   31.51
   2   6   4  456.24   31.62
   2   6   5  266.62   30.66
   2   6   5  155.26   28.59
   2   6   6  303.87   31.33
   2   6   6  146.09   28.88
   2   6   6  235.76   34.86
   2   6   7  340.98   36.37
   2   6   8  211.90   36.19
   2   6   8  160.87   37.37
   2   6   9   87.94   25.27
   2   6   9  120.27   37.96
   2   6   9  106.81   39.65
   2   6  10  197.06   44.86
   2   6  10  120.14   24.38
   2   6  10  258.62   45.20
   2   6  11  310.61   47.28
   2   6  11  325.01   49.32
   2   6  11  218.35   25.03
   2   6  11  434.33   53.16
   2   6  12  349.68   51.47
   2   6  13  264.78   62.78
   2   6  13  255.78   50.05
   2   6  14  210.05   68.13
   2   6  14  144.63   50.73
   2   7  -6  140.14   66.08
   2   7  -5   50.55   54.30
   2   7  -4   87.73   49.27
   2   7  -3  141.12   45.09
   2   7  -3  127.40   47.29
   2   7  -2  290.07   43.81
   2   7  -2  316.17   43.23
   2   7  -2  378.88   45.29
   2   7  -2  269.41   31.77
   2   7  -1   87.89   37.27
   2   7  -1   90.96   36.07
   2   7  -1   41.40   39.61
   2   7  -1   68.45   28.32
   2   7   0  242.27   34.09
   2   7   0  283.97   37.18
   2   7   0  236.73   36.86
   2   7   1  428.68   34.78
   2   7   1  407.37   16.86
   2   7   1  353.00   35.20
   2   7   1  412.28   35.50
   2   7   2 1321.54   48.67
   2   7   2 1334.84   50.23
   2   7   3  861.26   40.60
   2   7   3  872.53   43.52
   2   7   4  104.85   31.07
   2   7   4  127.20   33.73
   2   7   4   94.34   29.53
   2   7   5  233.25   32.29
   2   7   5  250.12   31.81
   2   7   6  782.78   38.91
   2   7   6  767.04   42.52
   2   7   6  842.39   42.47
   2   7   7 1153.26   44.49
   2   7   7 1193.84   50.09
   2   7   7 1262.44   50.41
   2   7   8  606.40   44.24
   2   7   8  594.45   44.31
   2   7   9  458.38   35.62
   2   7   9  543.95   46.54
   2   7   9  602.78   46.70
   2   7  10  402.71   33.10
   2   7  10  501.53   49.00
   2   7  10  481.71   49.53
   2   7  11  678.41   35.44
   2   7  11  628.44   54.76
   2   7  12  409.34   30.82
   2   7  12  450.12   29.76
   2   7  12  512.77   54.43
   2   7  13  255.07   33.08
   2   7  13  243.05   51.87
   2   7  14  245.33   53.97
   2   8  -4  325.61   60.27
   2   8  -3  739.80   57.50
   2   8  -3  718.15   59.21
   2   8  -2  866.06   56.68
   2   8  -2  945.86   55.26
   2   8  -2  871.37   58.53
   2   8  -2  810.19   43.23
   2   8  -1  850.53   51.96
   2   8  -1  949.06   54.63
   2   8  -1  726.46   55.39
   2   8  -1  891.18   42.93
   2   8   0  251.23   42.35
   2   8   0  264.07   43.39
   2   8   0  254.09   38.18
   2   8   0  204.06   35.44
   2   8   1  696.81   45.75
   2   8   1  667.14   45.35
   2   8   2  837.94   44.50
   2   8   2  880.87   44.75
   2   8   2  756.85   29.06
   2   8   3  922.53   46.75
   2   8   3  971.52   37.21
   2   8   3  948.29   45.79
   2   8   4 1016.58   49.59
   2   8   4 1016.36   47.61
   2   8   5 1313.47   53.72
   2   8   5 1203.83   51.24
   2   8   6  742.23   44.72
   2   8   6  793.41   42.58
   2   8   6  741.13   42.24
   2   8   7  734.52   45.85
   2   8   7  815.96   46.13
   2   8   7  731.43   42.34
   2   8   8  758.13   47.94
   2   8   8  754.70   47.24
   2   8   9  462.96   47.43
   2   8   9  473.40   46.56
   2   8   9  422.68   37.06
   2   8  10  384.79   48.44
   2   8  10  428.50   48.50
   2   8  10  396.80   36.91
   2   8  11  285.26   34.51
   2   8  11  346.06   52.14
   2   8  12  278.84   34.42
   2   8  12  282.07   53.32
   2   8  13  104.73   30.57
   2   8  14  120.75   28.54
   2   9  -4  227.02   61.36
   2   9  -3  508.24   62.89
   2   9  -2  434.82   54.20
   2   9  -2  365.59   56.88
   2   9  -2  288.19   39.22
   2   9  -1  442.54   49.72
   2   9  -1  494.69   53.29
   2   9  -1  432.72   55.24
   2   9  -1  398.76   40.59
   2   9   0  574.07   47.93
   2   9   0  552.81   42.60
   2   9   0  483.69   53.13
   2   9   0  671.08   52.81
   2   9   1  417.08   43.09
   2   9   1  401.61   45.84
   2   9   1  436.79   47.03
   2   9   2  199.01   21.13
   2   9   2  213.12   41.77
   2   9   2  251.68   39.90
   2   9   3  161.86   38.90
   2   9   3  205.25   41.43
   2   9   3  168.88   28.90
   2   9   4  235.43   42.05
   2   9   4  207.39   33.25
   2   9   4  234.71   40.23
   2   9   5  571.20   45.71
   2   9   5  528.69   47.22
   2   9   6  377.92   43.22
   2   9   6  299.11   44.53
   2   9   7   17.26   38.10
   2   9   7   48.91   41.74
   2   9   8  122.44   43.27
   2   9   8  136.95   43.70
   2   9   9  107.57   39.13
   2   9   9   84.49   43.38
   2   9   9  160.94   47.11
   2   9  10   99.38   38.71
   2   9  10  118.58   47.60
   2   9  10  124.82   48.16
   2   9  11  128.19   49.23
   2   9  11   39.46   37.28
   2   9  12   57.40   36.64
   2   9  13  134.81   35.79
   2  10  -2  158.47   40.50
   2  10  -2   91.61   57.02
   2  10  -2  116.53   56.49
   2  10  -1  135.49   41.61
   2  10  -1   59.35   54.93
   2  10  -1  104.98   53.31
   2  10   0   69.17   40.22
   2  10   0   34.12   50.27
   2  10   0   68.27   50.33
   2  10   1   55.96   41.62
   2  10   1  136.06   49.20
   2  10   1   94.51   46.24
   2  10   1   90.98   41.26
   2  10   2  168.25   44.69
   2  10   2  125.28   16.79
   2  10   2  176.81   45.72
   2  10   2  169.54   42.74
   2  10   3  252.08   46.22
   2  10   4  129.32   42.54
   2  10   4  140.86   45.42
   2  10   4  151.35   33.11
   2  10   5   94.05   43.05
   2  10   5  134.04   46.77
   2  10   5  111.10   36.26
   2  10   6  104.56   42.90
   2  10   6  145.70   46.60
   2  10   6  148.91   41.30
   2  10   7  332.60   46.63
   2  10   7  324.73   49.24
   2  10   8  534.90   51.54
   2  10   9  219.65   45.33
   2  10   9  346.24   48.88
   2  10  10  175.26   45.28
   2  10  10  346.92   51.79
   2  10  11   84.60   41.95
   2  10  12  248.98   42.66
   2  10  13  196.83   40.44
   2  11  -1  256.07   44.74
   2  11  -1  300.80   62.07
   2  11  -1  320.08   59.54
   2  11   0  277.36   45.57
   2  11   0  153.89   57.30
   2  11   0  263.25   57.82
   2  11   1  169.91   45.51
   2  11   1  118.31   51.96
   2  11   1  198.87   54.45
   2  11   2  360.05   49.39
   2  11   2  309.87   53.55
   2  11   2  262.96   52.57
   2  11   3  617.67   54.61
   2  11   3  539.32   29.10
   2  11   3  664.54   53.93
   2  11   3  634.26   55.16
   2  11   4  599.04   55.17
   2  11   4  554.07   36.56
   2  11   5  418.08   53.28
   2  11   5  294.50   52.89
   2  11   5  424.26   40.99
   2  11   6  516.52   53.17
   2  11   6  487.20   55.61
   2  11   6  545.30   47.66
   2  11   7  493.77   54.02
   2  11   7  509.98   56.26
   2  11   7  478.91   50.45
   2  11   8  367.78   50.09
   2  11   9  244.14   50.30
   2  11  10  259.02   48.91
   2  11  11  289.40   49.14
   2  11  12  209.84   46.07
   2  12   1  385.49   50.83
   2  12   1  386.50   61.66
   2  12   1  438.42   62.82
   2  12   2  425.16   53.14
   2  12   2  425.93   60.91
   2  12   2  370.65   57.99
   2  12   3  147.26   51.51
   2  12   3   23.55   20.75
   2  12   3   95.81   53.75
   2  12   3  125.44   50.96
   2  12   4  133.99   52.81
   2  12   4   98.28   52.74
   2  12   4  148.01   30.54
   2  12   5   96.73   52.56
   2  12   5  180.78   37.48
   2  12   6  163.83   55.89
   2  12   6  329.68   44.13
   2  12   7  118.20   54.71
   2  12   7  274.64   47.85
   2  12   8   67.04   49.75
   2  12   9   14.37   51.61
   2  12   9  101.61   52.40
   2  12  10   39.33   50.17
   2  12  11   61.07   50.49
   2  13   4   60.67   57.34
   2  13   4  129.66   52.85
   2  13   4   70.61   25.20
   2  13   5   18.85   55.42
   2  13   5   66.17   35.35
   2  13   6   97.59   42.26
   2  13   7   79.79   58.63
   2  13   7  182.95   47.80
   2  13   8  191.71   51.60
   2  13   9  135.69   56.70
   3 -12  -9  109.31   45.83
   3 -12  -9  141.07   53.93
   3 -12  -8  135.96   55.76
   3 -12  -7  255.63   52.29
   3 -12  -7  124.17   56.04
   3 -12  -7  234.69   57.16
   3 -12  -6  454.63   58.95
   3 -12  -6  470.30   59.47
   3 -12  -5  331.71   63.80
   3 -12  -5  222.70   54.23
   3 -12  -4   23.40   71.55
   3 -12  -4   72.84   52.02
   3 -12  -3  232.68   51.20
   3 -12  -2  314.90   50.22
   3 -12  -1  198.12   44.61
   3 -11 -10  175.05   45.46
   3 -11 -10  168.21   45.79
   3 -11  -9   58.48   43.66
   3 -11  -9  109.63   48.57
   3 -11  -8   58.08   52.16
   3 -11  -7  120.97   51.24
   3 -11  -6  250.47   53.11
   3 -11  -6  148.34   52.16
   3 -11  -5   58.78   58.40
   3 -11  -5  139.93   48.05
   3 -11  -4  -37.58   65.32
   3 -11  -4   40.31   47.22
   3 -11  -3   41.23   71.14
   3 -11  -3   18.63   45.81
   3 -11  -2  200.67   70.08
   3 -11  -2   85.42   43.81
   3 -11  -1   39.80   41.02
   3 -11   0   50.90   38.38
   3 -11   1   72.65   34.11
   3 -10 -11   -0.61   45.85
   3 -10 -11   11.90   29.50
   3 -10 -10   10.48   44.20
   3 -10 -10  -38.19   38.64
   3 -10  -9  -28.07   40.35
   3 -10  -9   65.77   41.96
   3 -10  -9  -23.99   50.46
   3 -10  -8    0.26   40.31
   3 -10  -8   46.05   44.66
   3 -10  -8  -32.63   49.72
   3 -10  -7   -1.56   46.27
   3 -10  -7   22.23   45.83
   3 -10  -6  112.37   44.72
   3 -10  -6  -45.06   47.34
   3 -10  -5  182.05   49.35
   3 -10  -4  205.02   58.35
   3 -10  -4   63.46   49.02
   3 -10  -4   94.03   44.69
   3 -10  -3   44.71   47.87
   3 -10  -3  111.32   43.50
   3 -10  -2  167.92   52.39
   3 -10  -2  217.85   43.57
   3 -10  -1  190.25   54.20
   3 -10  -1  274.21   40.50
   3 -10   0  195.27   38.04
   3 -10   1  115.53   35.55
   3 -10   2   84.73   32.06
   3 -10   3   96.07   25.69
   3  -9 -11  214.85   50.20
   3  -9 -10  217.12   46.19
   3  -9 -10  131.59   30.39
   3  -9  -9  140.78   42.57
   3  -9  -9   96.15   36.00
   3  -9  -9   98.99   47.90
   3  -9  -8  108.25   40.84
   3  -9  -8   99.53   40.38
   3  -9  -8  120.88   45.45
   3  -9  -7  101.16   41.55
   3  -9  -7  126.10   43.40
   3  -9  -6  479.15   46.58
   3  -9  -6  292.74   46.33
   3  -9  -6  465.24   45.87
   3  -9  -5  729.10   47.30
   3  -9  -4  352.45   48.67
   3  -9  -3   82.55   44.53
   3  -9  -2  360.51   39.09
   3  -9  -2  302.31   49.97
   3  -9  -1  528.33   53.00
   3  -9  -1  480.17   39.12
   3  -9   0  541.78   54.86
   3  -9   0  436.29   38.28
   3  -9   1  290.82   34.62
   3  -9   1  317.56   54.23
   3  -9   2  180.55   32.80
   3  -9   3  124.55   29.72
   3  -9   4  137.18   26.89
   3  -8 -11  272.00   52.27
   3  -8 -10  190.22   17.82
   3  -8 -10  445.45   48.12
   3  -8  -9  211.47   46.45
   3  -8  -9  145.40   29.06
   3  -8  -9  220.86   43.04
   3  -8  -8  112.45   41.22
   3  -8  -8   77.69   32.50
   3  -8  -8  129.80   36.82
   3  -8  -7   29.71   38.91
   3  -8  -7   86.60   36.91
   3  -8  -7    7.64   35.88
   3  -8  -6  159.00   39.10
   3  -8  -6   93.55   39.57
   3  -8  -6  230.04   41.19
   3  -8  -5  591.01   41.94
   3  -8  -4  356.99   43.33
   3  -8  -4  376.68   37.22
   3  -8  -3   50.99   40.39
   3  -8  -3   89.33   32.43
   3  -8  -2  161.36   42.12
   3  -8  -2  256.91   52.43
   3  -8  -1   91.27   42.10
   3  -8  -1  319.21   51.97
   3  -8   0   34.33   42.51
   3  -8   0   43.49   31.25
   3  -8   1   69.41   45.45
   3  -8   1   47.59   28.88
   3  -8   2  -23.98   47.09
   3  -8   2   36.90   29.15
   3  -8   3   44.89   50.44
   3  -8   3   37.02   28.40
   3  -8   4  103.03   27.75
   3  -8   5  127.75   27.03
   3  -8   6   90.69   25.26
   3  -7 -10   46.36   47.39
   3  -7  -9  -14.74   42.06
   3  -7  -9   23.61   18.41
   3  -7  -9   23.25   41.15
   3  -7  -8  -16.22   37.82
   3  -7  -8   -2.15   38.44
   3  -7  -8  -10.56   24.52
   3  -7  -7   -3.58   34.86
   3  -7  -7    3.64   42.10
   3  -7  -7    2.52   28.93
   3  -7  -6   53.50   36.46
   3  -7  -6   -6.47   33.98
   3  -7  -6   72.31   34.07
   3  -7  -5  160.45   34.12
   3  -7  -4  241.66   37.21
   3  -7  -4  255.82   32.55
   3  -7  -4  182.39   38.18
   3  -7  -3  108.77   42.01
   3  -7  -3   72.06   36.50
   3  -7  -3   52.33   29.68
   3  -7  -2   99.95   44.55
   3  -7  -2   67.99   36.92
   3  -7  -2  151.59   30.05
   3  -7  -1  152.86   38.56
   3  -7  -1  387.57   46.00
   3  -7   0  705.13   47.69
   3  -7   1  479.07   32.47
   3  -7   1  561.11   46.82
   3  -7   2  506.54   31.83
   3  -7   2  536.66   50.04
   3  -7   3  552.81   33.51
   3  -7   3  627.34   53.15
   3  -7   4  409.49   31.82
   3  -7   4  428.82   53.04
   3  -7   5  418.13   32.72
   3  -7   5  502.71   58.56
   3  -7   6  361.56   31.99
   3  -7   7  325.34   31.25
   3  -6  -9  376.43   46.71
   3  -6  -9  357.00   46.77
   3  -6  -8  205.21   39.26
   3  -6  -8  154.66   18.02
   3  -6  -7  170.88   24.34
   3  -6  -7  254.85   36.53
   3  -6  -6  343.46   36.64
   3  -6  -6  359.80   33.92
   3  -6  -6  372.88   41.41
   3  -6  -5  699.48   37.82
   3  -6  -5  665.89   36.62
   3  -6  -4 1258.95   47.86
   3  -6  -4 1315.19   48.64
   3  -6  -4 1308.77   46.41
   3  -6  -3  809.96   43.05
   3  -6  -3  651.91   40.30
   3  -6  -3  658.98   34.13
   3  -6  -2  271.56   41.37
   3  -6  -2  224.69   37.13
   3  -6  -2  249.76   28.77
   3  -6  -1  967.09   46.68
   3  -6  -1 1161.94   56.01
   3  -6  -1  931.41   37.19
   3  -6   0 1218.33   50.62
   3  -6   0 1023.83   37.88
   3  -6   1  671.58   44.71
   3  -6   2  761.17   48.25
   3  -6   3 1527.05   61.13
   3  -6   3 1386.18   44.44
   3  -6   4 1058.90   54.74
   3  -6   4  936.70   56.41
   3  -6   4  904.14   36.40
   3  -6   5  490.48   50.79
   3  -6   5  443.39   51.78
   3  -6   5  369.28   33.41
   3  -6   6  196.88   33.61
   3  -6   7  416.39   57.65
   3  -6   7  276.34   36.13
   3  -6   8  530.22   39.65
   3  -5  -9  560.67   50.55
   3  -5  -8  458.61   44.81
   3  -5  -7  268.49   18.11
   3  -5  -7  458.93   37.42
   3  -5  -6  838.51   47.12
   3  -5  -6  831.11   39.35
   3  -5  -6  769.68   39.25
   3  -5  -5  275.97   32.48
   3  -5  -5  312.31   32.19
   3  -5  -5  349.69   28.55
   3  -5  -5  306.99   29.13
   3  -5  -4  445.11   29.44
   3  -5  -4  434.42   31.47
   3  -5  -4  523.64   29.57
   3  -5  -3  866.89   39.96
   3  -5  -3  828.82   38.18
   3  -5  -3  921.71   36.60
   3  -5  -2  554.31   38.83
   3  -5  -2  434.22   36.17
   3  -5  -2  402.96   28.85
   3  -5  -1  494.60   44.30
   3  -5  -1  459.07   36.00
   3  -5  -1  411.07   27.56
   3  -5   0  378.00   35.36
   3  -5   0  385.93   28.81
   3  -5   1   91.85   33.71
   3  -5   1  136.94   25.81
   3  -5   2  494.15   27.57
   3  -5   3  867.36   44.76
   3  -5   3  720.12   45.95
   3  -5   4  457.20   42.88
   3  -5   4  394.32   30.03
   3  -5   5  167.40   42.95
   3  -5   5  168.34   44.30
   3  -5   5  232.21   31.94
   3  -5   6  143.91   46.65
   3  -5   6  160.85   42.13
   3  -5   6  164.68   30.90
   3  -5   7  188.09   45.88
   3  -5   7  197.90   33.33
   3  -5   8  270.59   51.71
   3  -5   8  134.69   53.97
   3  -5   9  220.38   53.85
   3  -5   9  220.31   57.03
   3  -5   9  100.16   36.97
   3  -4  -8  288.80   43.16
   3  -4  -7  628.08   42.72
   3  -4  -5  175.71   37.33
   3  -4  -4  201.44   25.15
   3  -4  -4  218.82   28.03
   3  -4  -4  183.51   23.23
   3  -4  -3  148.63   24.19
   3  -4  -2  148.15   28.40
   3  -4  -2  119.22   26.51
   3  -4  -2  122.69   22.53
   3  -4  -1  304.71   35.91
   3  -4  -1  317.86   33.11
   3  -4  -1  288.52   25.64
   3  -4   0  183.31   35.67
   3  -4   0  151.52   30.39
   3  -4   0  111.19   21.73
   3  -4   1 1015.70   43.64
   3  -4   1  909.04   33.70
   3  -4   2  772.71   38.11
   3  -4   2  731.80   41.92
   3  -4   2  621.89   31.47
   3  -4   3  482.25   39.73
   3  -4   3  434.17   39.34
   3  -4   3  550.28   29.79
   3  -4   4  322.37   34.25
   3  -4   4  289.37   39.52
   3  -4   4  299.69   38.75
   3  -4   5  781.10   45.13
   3  -4   5  788.38   48.39
   3  -4   5  839.36   49.99
   3  -4   6  749.85   47.60
   3  -4   6  665.87   52.41
   3  -4   6  672.21   52.09
   3  -4   7  829.39   53.08
   3  -4   7  853.99   57.96
   3  -4   8 1007.43   62.05
   3  -4   8  968.68   59.71
   3  -4   9  513.85   56.76
   3  -4   9  510.88   55.11
   3  -4  10  511.65   44.48
   3  -4  10  669.82   60.31
   3  -4  10  589.66   60.82
   3  -3  -8  468.28   46.16
   3  -3  -7  228.01   40.22
   3  -3  -7  215.82   37.74
   3  -3  -6  207.47   33.37
   3  -3  -6  251.65   36.09
   3  -3  -5  351.02   31.22
   3  -3  -5  370.14   33.02
   3  -3  -4  995.02   41.33
   3  -3  -4 1002.77   30.50
   3  -3  -4 1030.27   37.40
   3  -3  -3 2165.53   55.40
   3  -3  -3 2292.84   55.84
   3  -3  -3 2320.40   54.67
   3  -3  -2  936.02   36.90
   3  -3  -2 1027.64   35.21
   3  -3  -1 1277.34   43.32
   3  -3  -1 1320.67   41.59
   3  -3  -1 1188.52   36.90
   3  -3   0 1672.66   53.97
   3  -3   0 1816.36   51.23
   3  -3   0 1577.33   43.75
   3  -3   1 1888.09   54.62
   3  -3   1 1835.40   47.04
   3  -3   2  815.10   36.41
   3  -3   2  828.34   39.36
   3  -3   2  792.48   30.69
   3  -3   3 1749.42   53.13
   3  -3   3 1908.32   57.02
   3  -3   3 1856.34   57.83
   3  -3   3 1617.58   46.09
   3  -3   4 1832.36   56.94
   3  -3   4 1704.68   60.09
   3  -3   4 1818.67   60.52
   3  -3   5 1292.05   51.28
   3  -3   5 1261.95   53.85
   3  -3   5 1299.33   54.42
   3  -3   6  585.12   40.67
   3  -3   6  605.33   46.96
   3  -3   6  528.50   44.19
   3  -3   7  511.91   44.30
   3  -3   7  451.59   48.31
   3  -3   8 1594.48   67.36
   3  -3   8 1671.85   68.06
   3  -3   8 1560.76   70.49
   3  -3   9 1652.28   72.69
   3  -3   9 1701.61   70.69
   3  -3  10  529.45   56.73
   3  -3  10  459.56   45.68
   3  -3  10  570.74   54.30
   3  -3  11  163.76   54.75
   3  -3  11  133.14   50.40
   3  -3  11  134.65   44.29
   3  -2  -7  960.34   46.67
   3  -2  -6 1129.73   45.97
   3  -2  -6 1221.69   51.33
   3  -2  -5 1466.09   47.14
   3  -2  -5 1513.34   50.14
   3  -2  -4  242.75   25.56
   3  -2  -4  233.67   28.01
   3  -2  -3  848.30   28.11
   3  -2  -3  968.42   35.50
   3  -2  -3  964.22   33.42
   3  -2  -2 1268.14   35.14
   3  -2  -2 1311.01   36.53
   3  -2  -1 1509.46   44.39
   3  -2  -1 1527.50   42.05
   3  -2   0 1408.33   44.40
   3  -2   0 1407.09   41.74
   3  -2   0 1487.39   38.60
   3  -2   1 1477.30   49.90
   3  -2   1 1697.81   44.82
   3  -2   1 1590.01   47.73
   3  -2   1 1890.93   44.94
   3  -2   2  130.24   27.50
   3  -2   2   92.92   23.74
   3  -2   2   87.16   21.93
   3  -2   3  219.34   26.45
   3  -2   3  264.97   31.10
   3  -2   3  199.56   31.32
   3  -2   4 1513.54   50.94
   3  -2   4 1502.18   54.13
   3  -2   4 1596.10   51.54
   3  -2   5  434.07   34.34
   3  -2   5  450.26   37.53
   3  -2   5  400.98   36.90
   3  -2   6   29.70   31.13
   3  -2   6   98.17   34.53
   3  -2   6   19.76   34.05
   3  -2   7   41.08   32.59
   3  -2   7   48.10   35.00
   3  -2   8   78.95   39.01
   3  -2   8  101.97   41.23
   3  -2   8  123.15   41.47
   3  -2   9   62.78   43.96
   3  -2   9   18.02   44.83
   3  -2   9   70.20   43.56
   3  -2  10   69.94   48.16
   3  -2  10   69.85   45.38
   3  -2  11  142.09   52.24
   3  -2  11  153.65   49.90
   3  -2  11  118.61   44.28
   3  -1  -7   72.82   39.17
   3  -1  -3  152.18   28.04
   3  -1  -3  149.35   21.71
   3  -1  -2  148.23   20.34
   3  -1  -2  154.19   24.87
   3  -1   0  231.58   20.48
   3  -1   1  547.18   21.83
   3  -1   1  791.66   28.63
   3  -1   1  499.50   24.55
   3  -1   1  641.66   32.92
   3  -1   2 1239.76   37.32
   3  -1   2 1164.80   38.69
   3  -1   2 1305.01   37.64
   3  -1   2 1278.48   41.65
   3  -1   3  613.83   30.78
   3  -1   3  721.40   32.75
   3  -1   4  195.39   28.11
   3  -1   4  248.64   27.89
   3  -1   5  996.95   39.74
   3  -1   5 1011.98   42.66
   3  -1   6 2031.10   58.97
   3  -1   6 1891.50   62.51
   3  -1   7  493.80   38.69
   3  -1   8  894.29   49.27
   3  -1   9 2076.17   68.27
   3  -1   9 1926.33   73.67
   3  -1  10 1076.91   61.66
   3  -1  10 1306.19   57.03
   3  -1  10 1152.82   63.91
   3  -1  11  541.96   56.88
   3  -1  11  514.17   48.96
   3  -1  11  625.96   49.57
   3  -1  12  254.00   56.69
   3  -1  12  343.16   46.59
   3  -1  12  374.88   50.21
   3   0  -6  269.84   34.55
   3   0  -5  379.99   31.72
   3   0  -4  886.44   35.08
   3   0  -4  955.07   44.10
   3   0  -3  890.29   38.38
   3   0  -3  768.82   29.86
   3   0  -2  695.32   32.38
   3   0  -2  720.09   27.30
   3   0  -1  385.98   24.83
   3   0  -1  417.97   22.35
   3   0   0  329.26   21.70
   3   0   0  274.87   20.80
   3   0   1 1178.00   33.45
   3   0   1 1086.30   34.94
   3   0   1 1116.89   27.76
   3   0   2 5520.90  118.01
   3   0   2 5520.27  119.08
   3   0   2 5687.86  120.55
   3   0   3 1207.96   37.35
   3   0   3 1192.45   37.17
   3   0   4 3552.28   84.08
   3   0   4 3538.68   82.63
   3   0   5 2570.09   69.40
   3   0   5 2662.40   66.50
   3   0   6 1960.02   61.14
   3   0   6 2064.81   57.83
   3   0   7  791.21   41.79
   3   0   7  767.27   38.58
   3   0   8  737.18   43.46
   3   0   9  962.52   53.09
   3   0   9  963.90   45.97
   3   0  10  723.36   53.66
   3   0  10  727.70   43.45
   3   0  11  322.67   41.17
   3   0  11  230.44   46.10
   3   0  12   82.47   38.44
   3   0  12  103.14   47.49
   3   1  -6  898.25   48.00
   3   1  -5 1435.67   54.89
   3   1  -5 1620.26   49.25
   3   1  -4 2523.36   69.09
   3   1  -4 2656.71   64.84
   3   1  -3 1039.58   37.54
   3   1  -3 1024.41   33.08
   3   1  -2  542.56   27.69
   3   1  -2  592.35   24.99
   3   1  -2  646.58   34.11
   3   1  -1   81.59   16.47
   3   1  -1  175.73   25.41
   3   1  -1  120.97   18.83
   3   1   0  875.70   22.68
   3   1   0  959.20   28.45
   3   1   0  921.29   32.90
   3   1   1  101.96   19.89
   3   1   2 2053.61   49.47
   3   1   2 2067.94   48.88
   3   1   2 2318.47   51.41
   3   1   3  305.30   21.07
   3   1   3  257.10   21.90
   3   1   3  273.38   23.25
   3   1   4  228.81   21.91
   3   1   4  251.95   24.75
   3   1   5 1267.31   38.34
   3   1   5 1266.33   42.07
   3   1   5 1193.00   38.08
   3   1   6  133.72   27.33
   3   1   6   95.34   23.62
   3   1   7   79.97   30.81
   3   1   7   83.17   26.60
   3   1   8   48.74   30.85
   3   1   9  305.56   40.59
   3   1   9  306.37   32.01
   3   1  10  667.55   51.35
   3   1  10  655.85   39.11
   3   1  11  161.99   47.92
   3   1  11  192.41   35.10
   3   1  12  130.68   34.92
   3   1  12  135.72   45.74
   3   1  13  203.32   60.04
   3   2  -6  118.28   40.47
   3   2  -5  460.23   39.41
   3   2  -4  660.56   40.14
   3   2  -4  687.64   40.22
   3   2  -3   50.02   32.74
   3   2  -3   -7.12   27.89
   3   2  -3   64.72   21.43
   3   2  -2   65.17   29.78
   3   2  -2   18.75   22.01
   3   2  -2   90.58   17.88
   3   2  -1   44.37   19.74
   3   2  -1   49.27   19.25
   3   2  -1   68.63   16.34
   3   2  -1   76.71   28.98
   3   2  -1   34.22   27.46
   3   2   0  129.15   25.78
   3   2   0  124.50   16.44
   3   2   0   89.45   17.72
   3   2   1  528.75   26.75
   3   2   1  528.12   26.04
   3   2   2  840.83   30.59
   3   2   2  730.94   25.63
   3   2   3  584.36   25.46
   3   2   3  503.51   22.25
   3   2   3  538.29   26.99
   3   2   4 1329.58   40.02
   3   2   4 1283.85   40.59
   3   2   4 1255.96   35.91
   3   2   4 1300.18   41.87
   3   2   4 1363.35   35.20
   3   2   5 1449.47   50.24
   3   2   5 1536.44   43.55
   3   2   6 1650.91   46.38
   3   2   6 1631.03   51.36
   3   2   6 1515.21   53.65
   3   2   6 1512.33   44.95
   3   2   7 1555.35   46.12
   3   2   7 1570.04   52.81
   3   2   7 1466.07   44.87
   3   2   7 1489.79   56.64
   3   2   8  732.79   41.29
   3   2   9 1231.62   44.91
   3   2   9 1359.66   54.84
   3   2   9 1424.57   62.89
   3   2   9 1279.41   45.44
   3   2  10 3296.29   85.55
   3   2  10 3832.92  106.39
   3   2  10 3644.86  101.43
   3   2  11 1864.45   82.66
   3   2  11 1682.47   72.59
   3   2  12  359.65   57.55
   3   2  12  495.10   72.17
   3   2  13  427.44   77.70
   3   2  13  332.01   59.04
   3   3  -9   68.28   58.51
   3   3  -5  653.06   48.05
   3   3  -5  667.16   47.43
   3   3  -4  815.02   47.89
   3   3  -4  831.64   46.22
   3   3  -3 1118.54   48.42
   3   3  -3 1197.56   47.17
   3   3  -2  991.56   39.03
   3   3  -2  957.02   43.57
   3   3  -2  932.68   28.53
   3   3  -1  877.25   32.71
   3   3  -1  875.97   25.54
   3   3  -1  906.84   35.09
   3   3  -1  853.77   38.74
   3   3   0 3196.69   73.30
   3   3   0 3150.35   68.60
   3   3   1 6680.70  142.84
   3   3   2 3003.12   69.69
   3   3   2 2853.28   66.86
   3   3   3 2462.53   55.38
   3   3   4 1438.27   41.60
   3   3   5 2039.07   53.51
   3   3   5 2029.33   54.93
   3   3   5 1888.32   45.27
   3   3   5 1985.63   54.93
   3   3   6 2748.93   67.46
   3   3   6 2605.83   70.80
   3   3   6 2501.76   70.92
   3   3   7 2114.37   56.40
   3   3   7 1894.71   61.76
   3   3   7 2093.25   64.15
   3   3   7 1991.45   63.32
   3   3   8  805.70   37.49
   3   3   8  833.02   49.00
   3   3   8  812.53   42.80
   3   3   8  856.17   48.40
   3   3   9  521.14   48.58
   3   3   9  515.82   39.94
   3   3   9  519.32   48.62
   3   3  10  685.70   41.90
   3   3  10  916.18   60.85
   3   3  10 1010.25   61.21
   3   3  10  795.64   49.90
   3   3  11  592.63   51.06
   3   3  11  543.59   42.33
   3   3  11  558.53   48.61
   3   3  11  634.10   51.94
   3   3  11  715.72   65.89
   3   3  12  203.63   66.74
   3   3  12   99.77   48.52
   3   3  12  115.71   37.08
   3   3  13  181.50   71.78
   3   3  13   98.30   54.11
   3   4  -5 1313.90   60.20
   3   4  -4 1838.82   65.87
   3   4  -4 1834.90   66.45
   3   4  -3 1760.84   59.58
   3   4  -3 1753.13   61.29
   3   4  -2 1602.39   51.82
   3   4  -2 1574.32   54.19
   3   4  -1 1842.72   52.46
   3   4  -1 1749.45   54.15
   3   4   0 1082.41   39.70
   3   4   0 1134.05   37.51
   3   4   1 1631.77   46.81
   3   4   2 1371.72   41.09
   3   4   2 1356.91   42.06
   3   4   3  933.91   32.73
   3   4   3  938.63   36.20
   3   4   4  593.27   26.76
   3   4   5   42.07   20.39
   3   4   5   20.29   20.38
   3   4   6  116.40   18.49
   3   4   6  190.58   31.53
   3   4   6  153.17   26.87
   3   4   7   87.89   27.53
   3   4   7  134.52   34.68
   3   4   7   85.62   34.99
   3   4   8  106.43   32.06
   3   4   8  168.96   39.49
   3   4   9  117.99   42.89
   3   4   9   14.60   31.40
   3   4   9   92.62   41.44
   3   4   9   28.47   28.19
   3   4  10  153.07   37.02
   3   4  10  224.33   49.39
   3   4  10  146.28   32.70
   3   4  10  191.33   39.42
   3   4  11  414.23   47.66
   3   4  11  496.93   44.06
   3   4  11  411.14   41.69
   3   4  11  576.12   60.10
   3   4  11  462.23   51.01
   3   4  12  291.65   42.91
   3   4  12  284.01   52.91
   3   4  12  280.60   45.26
   3   4  12  417.74   65.18
   3   4  13  232.57   69.09
   3   4  13  119.72   49.21
   3   4  13   98.51   42.84
   3   4  14  239.40   75.01
   3   4  14  161.53   55.04
   3   4  14  121.53   41.66
   3   5  -7  376.65   64.57
   3   5  -6  114.82   58.16
   3   5  -4  146.41   48.42
   3   5  -4   85.25   43.92
   3   5  -3  213.00   45.01
   3   5  -3  114.53   37.25
   3   5  -2   54.87   30.73
   3   5  -2   25.84   32.43
   3   5  -1   52.35   27.90
   3   5  -1   -8.05   30.53
   3   5   0   33.94   26.99
   3   5   0   67.37   25.45
   3   5   0   62.56   28.26
   3   5   0   47.37   24.54
   3   5   1  110.99   24.59
   3   5   2  220.51   27.11
   3   5   3  609.00   31.10
   3   5   3  676.74   33.53
   3   5   4  622.69   30.01
   3   5   5  439.20   26.56
   3   5   6 1676.69   47.42
   3   5   6 1721.09   54.30
   3   5   7 1968.21   59.69
   3   5   8  832.98   45.59
   3   5   8  794.36   42.71
   3   5   9  320.15   37.82
   3   5   9  326.66   41.64
   3   5   9  292.16   42.01
   3   5  10  391.49   40.39
   3   5  10  500.08   49.09
   3   5  10  422.79   29.69
   3   5  10  427.43   48.62
   3   5  10  402.07   45.42
   3   5  11 1189.17   64.42
   3   5  11  962.70   56.16
   3   5  11 1154.52   55.87
   3   5  11 1157.29   45.09
   3   5  11 1196.13   63.90
   3   5  11 1190.21   60.69
   3   5  12  772.19   52.72
   3   5  12  715.43   46.26
   3   5  12  859.29   65.86
   3   5  12  716.51   58.76
   3   5  13  349.50   47.58
   3   5  13  388.92   65.76
   3   5  13  325.53   48.22
   3   5  14  254.33   49.76
   3   5  14  298.80   71.86
   3   5  14  181.00   48.58
   3   6  -6   83.21   63.71
   3   6  -4  545.18   54.80
   3   6  -3 1109.97   58.00
   3   6  -2  907.97   48.68
   3   6  -2  912.40   49.74
   3   6  -1  203.56   28.66
   3   6  -1  196.04   37.11
   3   6  -1  239.90   34.90
   3   6   0  353.72   32.69
   3   6   0  320.69   34.03
   3   6   0  303.34   35.86
   3   6   1 1533.68   50.26
   3   6   1 1331.35   48.67
   3   6   1 1570.36   48.65
   3   6   2 3365.76   82.81
   3   6   3  964.83   40.86
   3   6   3  900.38   39.25
   3   6   4 1041.10   43.25
   3   6   4  962.52   39.33
   3   6   5  855.26   37.14
   3   6   6 1441.00   48.21
   3   6   6 1220.06   42.93
   3   6   7 1437.41   51.29
   3   6   7 1157.03   42.24
   3   6   8  832.83   45.38
   3   6   9  433.75   41.37
   3   6   9  280.37   27.71
   3   6   9  368.30   42.52
   3   6  10  287.35   42.66
   3   6  10  253.76   26.22
   3   6  10  317.81   46.78
   3   6  10  420.15   46.63
   3   6  11  384.92   50.68
   3   6  11  685.15   55.49
   3   6  12  181.49   46.94
   3   6  13  163.11   49.94
   3   6  13  156.85   36.66
   3   6  13  259.78   61.46
   3   6  14  162.02   50.72
   3   6  14  166.51   42.91
   3   7  -5  228.37   66.65
   3   7  -3 1210.53   64.22
   3   7  -2 1123.27   57.12
   3   7  -2 1081.60   57.86
   3   7  -1  275.87   41.31
   3   7  -1  295.10   33.94
   3   7  -1  193.86   44.23
   3   7  -1  268.38   41.13
   3   7   0  459.40   40.74
   3   7   0  384.79   40.95
   3   7   0  432.95   37.86
   3   7   1  513.14   38.78
   3   7   1  497.15   19.55
   3   7   1  557.23   38.79
   3   7   2  828.15   40.78
   3   7   2  801.30   30.74
   3   7   2  823.78   41.42
   3   7   3  439.45   33.58
   3   7   3  489.69   36.81
   3   7   4  175.03   31.47
   3   7   4  189.31   33.64
   3   7   4  190.08   29.61
   3   7   5  383.01   37.07
   3   7   5  340.23   33.66
   3   7   5  388.37   32.97
   3   7   6   92.34   28.52
   3   7   6  118.73   32.94
   3   7   6  135.27   33.48
   3   7   7  133.49   28.81
   3   7   7  195.00   35.13
   3   7   7  145.39   37.01
   3   7   8  118.37   37.95
   3   7   8   82.16   39.16
   3   7   9   -1.17   30.77
   3   7   9  108.33   40.67
   3   7   9  105.92   41.67
   3   7  10   -7.24   30.08
   3   7  10   92.05   45.68
   3   7  10   86.82   44.73
   3   7  11   30.02   29.68
   3   7  11  176.96   49.02
   3   7  12  307.02   50.50
   3   7  13  302.07   51.91
   3   7  13  130.34   25.45
   3   7  14   87.23   52.60
   3   8  -2  147.57   48.46
   3   8  -1  151.46   43.80
   3   8  -1   26.45   46.03
   3   8  -1   95.92   43.32
   3   8  -1  107.25   36.89
   3   8   0   69.16   41.02
   3   8   0   -0.42   41.76
   3   8   0   67.71   37.44
   3   8   0   48.90   33.99
   3   8   1   95.89   37.30
   3   8   1   38.53   37.08
   3   8   2  501.89   26.68
   3   8   2  589.66   43.24
   3   8   3  557.30   41.51
   3   8   3  473.85   31.28
   3   8   3  500.09   39.34
   3   8   4  167.93   35.88
   3   8   4  199.64   37.37
   3   8   5   59.42   34.65
   3   8   5   80.89   37.04
   3   8   6  132.06   34.34
   3   8   6  189.72   40.28
   3   8   6  157.42   36.81
   3   8   7  328.63   37.55
   3   8   7  296.75   40.69
   3   8   7  293.89   41.59
   3   8   8  679.57   49.78
   3   8   8  696.33   49.28
   3   8   9  466.02   48.13
   3   8   9  381.51   37.57
   3   8   9  442.42   47.62
   3   8  10  213.31   34.85
   3   8  10  269.18   48.32
   3   8  10  298.57   48.31
   3   8  11  247.83   35.51
   3   8  11  382.86   52.81
   3   8  11  285.78   49.98
   3   8  12  218.33   34.23
   3   9  -2  430.39   57.88
   3   9  -1  323.80   52.62
   3   9  -1  244.55   52.98
   3   9  -1  288.57   41.52
   3   9   0  464.93   48.30
   3   9   0  439.27   51.13
   3   9   0  370.76   52.66
   3   9   0  451.97   43.33
   3   9   1  355.07   42.10
   3   9   1  384.57   41.24
   3   9   1  445.63   48.84
   3   9   1  396.29   47.43
   3   9   2  522.66   47.18
   3   9   2  519.29   44.87
   3   9   2  399.95   20.79
   3   9   3  824.42   35.23
   3   9   3  870.10   49.46
   3   9   4  600.52   46.61
   3   9   4  665.04   37.25
   3   9   4  592.30   45.22
   3   9   5  596.34   47.35
   3   9   5  526.13   40.47
   3   9   5  467.81   44.83
   3   9   6  311.69   41.38
   3   9   6  271.50   45.22
   3   9   7  199.41   39.08
   3   9   7  212.37   43.08
   3   9   8  230.02   44.89
   3   9   8  199.11   44.25
   3   9   9  656.15   51.94
   3   9   9  698.65   52.04
   3   9   9  650.31   45.82
   3   9  10  546.18   53.90
   3   9  10  455.87   41.53
   3   9  10  544.41   52.83
   3   9  11  119.91   37.81
   3   9  11  247.46   52.15
   3   9  11  268.77   52.90
   3   9  12   96.14   37.30
   3   9  13  104.16   36.27
   3  10  -1  338.34   45.47
   3  10  -1  344.79   59.42
   3  10  -1  398.72   58.05
   3  10   0  196.92   43.12
   3  10   0  169.63   54.87
   3  10   0  278.12   53.46
   3  10   1  388.94   45.05
   3  10   1  317.00   51.63
   3  10   1  298.92   51.70
   3  10   1  263.75   45.89
   3  10   2  288.54   50.04
   3  10   2  248.87   46.49
   3  10   3  407.07   28.17
   3  10   3  484.47   49.62
   3  10   4  247.30   44.68
   3  10   4  261.03   33.62
   3  10   5  145.41   43.99
   3  10   5  183.93   46.20
   3  10   5  152.75   37.50
   3  10   6  168.18   45.40
   3  10   6  218.90   47.42
   3  10   6  264.21   42.05
   3  10   7   61.37   44.64
   3  10   7   93.33   48.18
   3  10   7  132.39   44.08
   3  10   8   44.85   48.02
   3  10   9   61.43   47.74
   3  10   9   21.94   41.58
   3  10  10   64.87   41.11
   3  10  11   19.79   39.87
   3  10  12   19.58   39.52
   3  10  13   30.98   39.15
   3  11   0   92.00   46.56
   3  11   0   77.18   59.16
   3  11   0   98.69   56.85
   3  11   1  114.46   44.98
   3  11   1   53.66   53.91
   3  11   1  113.10   55.35
   3  11   2   83.18   45.16
   3  11   2   83.57   51.83
   3  11   2   32.75   50.06
   3  11   3  139.96   47.96
   3  11   3   73.63   21.46
   3  11   3  148.42   47.24
   3  11   3   94.81   50.05
   3  11   4   99.67   48.75
   3  11   4  100.76   30.71
   3  11   5   57.05   48.65
   3  11   5   93.76   37.17
   3  11   6   26.29   46.41
   3  11   6   30.57   49.43
   3  11   6   31.26   40.82
   3  11   7  133.32   45.67
   3  11   7   70.19   47.82
   3  11   8  243.81   48.42
   3  11   9  410.81   52.64
   3  11   9  433.73   52.84
   3  11  10  134.88   47.26
   3  11  11  129.94   45.31
   3  11  12  156.97   45.06
   3  12   2  131.45   49.46
   3  12   2  101.47   55.26
   3  12   2  148.25   58.17
   3  12   3  226.69   51.45
   3  12   3  203.35   57.20
   3  12   3  217.83   54.81
   3  12   4  314.84   56.32
   3  12   4  325.28   52.12
   3  12   4  264.64   29.50
   3  12   5  328.70   55.71
   3  12   5  352.18   37.38
   3  12   6  337.90   56.38
   3  12   6  415.81   44.47
   3  12   7  358.01   58.80
   3  12   7  381.01   48.39
   3  12   8  413.80   51.75
   3  12   9  241.71   52.47
   3  12   9  305.44   53.91
   3  12  10  293.15   51.55
   3  12  11  226.05   51.45
   3  13   5  111.46   58.28
   3  13   5   74.01   33.39
   3  13   6  228.37   60.43
   3  13   6  309.64   41.15
   3  13   7  294.84   60.72
   3  13   7  417.79   48.53
   3  13   8  118.27   50.89
   3  13   9   13.99   54.65
   3  13   9   92.89   52.76
   4 -12  -8   39.28   55.38
   4 -12  -7   33.89   57.70
   4 -12  -7   66.95   57.50
   4 -12  -6  104.91   57.00
   4 -12  -6   83.69   57.25
   4 -12  -5   81.01   55.02
   4 -12  -5   68.70   63.20
   4 -12  -4   89.09   53.94
   4 -12  -3   76.56   51.00
   4 -12  -2  218.15   54.21
   4 -12  -1  208.93   50.20
   4 -11  -9   30.31   56.86
   4 -11  -9   98.61   47.80
   4 -11  -9   43.50   47.50
   4 -11  -8   95.21   51.02
   4 -11  -7  165.08   53.96
   4 -11  -6  417.96   59.59
   4 -11  -6  525.60   57.60
   4 -11  -5  409.54   54.88
   4 -11  -5  334.69   59.40
   4 -11  -5  373.96   60.36
   4 -11  -4  194.05   49.88
   4 -11  -4  187.89   64.57
   4 -11  -3  220.34   49.32
   4 -11  -3   92.83   71.66
   4 -11  -2  405.14   51.06
   4 -11  -1  410.86   48.79
   4 -11   0  220.95   45.02
   4 -11   1   84.54   41.29
   4 -10 -10  179.12   55.68
   4 -10 -10  113.31   36.35
   4 -10 -10  183.19   50.22
   4 -10  -9  214.50   55.49
   4 -10  -9  146.07   42.41
   4 -10  -9  160.78   48.55
   4 -10  -8  147.10   51.98
   4 -10  -8  123.71   46.91
   4 -10  -8  131.70   47.09
   4 -10  -7  224.16   49.66
   4 -10  -7  318.45   50.45
   4 -10  -6  173.09   52.15
   4 -10  -6  277.34   50.97
   4 -10  -5  128.59   51.87
   4 -10  -5  165.09   56.51
   4 -10  -3  114.54   52.14
   4 -10  -3  155.98   43.93
   4 -10  -2  128.41   54.57
   4 -10  -2  181.11   43.74
   4 -10  -1   89.79   42.96
   4 -10   0   44.35   41.38
   4 -10   1  -18.44   39.21
   4 -10   2    4.98   38.53
   4 -10   3   21.16   36.18
   4  -9 -11   79.37   52.13
   4  -9 -10   64.71   52.16
   4  -9 -10   47.36   28.44
   4  -9 -10   57.37   47.54
   4  -9  -9   44.41   49.04
   4  -9  -9   40.08   33.57
   4  -9  -9   55.93   61.50
   4  -9  -9   43.18   45.34
   4  -9  -8  -32.69   47.47
   4  -9  -8   56.70   38.06
   4  -9  -8    5.22   42.16
   4  -9  -7   39.55   42.17
   4  -9  -7   13.45   45.65
   4  -9  -6   58.75   45.07
   4  -9  -6   72.11   42.71
   4  -9  -5  125.34   42.08
   4  -9  -3   78.74   45.85
   4  -9  -2   74.44   48.85
   4  -9  -1  226.92   41.03
   4  -9  -1  279.01   51.57
   4  -9   0  211.71   40.39
   4  -9   0  268.78   53.65
   4  -9   1  178.44   53.66
   4  -9   1  159.80   36.65
   4  -9   2   75.74   35.60
   4  -9   3  164.17   35.74
   4  -9   4  254.10   35.62
   4  -9   5  239.54   33.47
   4  -8 -11  189.88   54.39
   4  -8 -10  128.64   51.30
   4  -8 -10  177.45   48.74
   4  -8  -9   68.60   47.43
   4  -8  -9   87.59   28.09
   4  -8  -9  121.87   60.57
   4  -8  -9   91.93   44.69
   4  -8  -8    5.60   42.09
   4  -8  -8   16.67   30.49
   4  -8  -8   51.31   40.59
   4  -8  -7  206.93   42.49
   4  -8  -7  197.22   38.04
   4  -8  -7  214.53   42.10
   4  -8  -6  208.15   43.06
   4  -8  -6  304.36   42.89
   4  -8  -5  480.69   43.34
   4  -8  -4  642.10   44.34
   4  -8  -3  167.54   44.51
   4  -8  -3  192.09   36.86
   4  -8  -2  197.90   45.96
   4  -8  -2  196.46   58.16
   4  -8  -1  567.97   54.24
   4  -8  -1  866.64   64.10
   4  -8   0  456.00   38.78
   4  -8   0  512.73   52.65
   4  -8   0  686.96   62.02
   4  -8   1  380.47   51.67
   4  -8   1  258.71   36.04
   4  -8   2  320.26   52.29
   4  -8   2  298.65   35.07
   4  -8   3   96.53   52.48
   4  -8   3   70.20   33.21
   4  -8   4  219.99   35.88
   4  -8   5  319.05   37.51
   4  -8   6  136.21   34.26
   4  -7 -10  409.02   55.52
   4  -7 -10  445.49   54.95
   4  -7  -9  392.62   49.80
   4  -7  -9  353.57   48.99
   4  -7  -8  208.19   43.34
   4  -7  -8  149.87   26.78
   4  -7  -8  170.60   40.85
   4  -7  -7  128.76   28.93
   4  -7  -7  214.62   39.84
   4  -7  -6  395.33   37.42
   4  -7  -6  381.98   39.92
   4  -7  -5  309.78   36.99
   4  -7  -4  389.75   37.20
   4  -7  -4  392.63   40.39
   4  -7  -3  189.48   33.51
   4  -7  -3  169.11   41.50
   4  -7  -3  258.26   44.19
   4  -7  -2  116.19   31.77
   4  -7  -2  147.29   40.53
   4  -7  -2   80.95   47.65
   4  -7  -1  283.05   33.79
   4  -7  -1  296.02   43.80
   4  -7  -1  418.38   54.13
   4  -7   0   92.28   41.61
   4  -7   0  180.60   51.05
   4  -7   1   54.23   41.62
   4  -7   2  302.83   47.47
   4  -7   2  318.92   34.54
   4  -7   3  441.35   51.98
   4  -7   3  394.11   35.92
   4  -7   4   67.65   51.07
   4  -7   4   54.54   33.56
   4  -7   5  130.52   54.38
   4  -7   5  168.41   34.83
   4  -7   6  198.04   34.90
   4  -7   7  164.26   34.75
   4  -6 -10   67.61   51.48
   4  -6 -10   61.56   52.08
   4  -6  -9   33.41   46.97
   4  -6  -9   26.37   46.59
   4  -6  -8   52.10   40.94
   4  -6  -7   88.64   24.35
   4  -6  -7   45.53   36.76
   4  -6  -6   37.14   25.92
   4  -6  -6   26.68   32.73
   4  -6  -5   56.26   30.36
   4  -6  -4  260.53   31.94
   4  -6  -4  164.50   34.68
   4  -6  -4  243.47   35.90
   4  -6  -3   34.94   28.14
   4  -6  -3   -5.23   35.28
   4  -6  -3   31.95   35.06
   4  -6  -2  101.48   28.87
   4  -6  -2   84.97   37.89
   4  -6  -2  132.65   40.91
   4  -6  -1  115.70   28.41
   4  -6  -1  109.97   37.06
   4  -6  -1  105.62   45.40
   4  -6   0  720.87   37.70
   4  -6   0  821.56   49.28
   4  -6   0 1015.05   56.89
   4  -6   1  579.63   46.22
   4  -6   2  166.56   41.31
   4  -6   3  244.60   45.82
   4  -6   4  301.95   50.07
   4  -6   4  355.29   35.49
   4  -6   5  574.66   39.14
   4  -6   5  683.77   56.42
   4  -6   5  736.16   55.81
   4  -6   6  334.98   39.25
   4  -6   7  423.87   42.01
   4  -6   8  235.87   41.47
   4  -5  -9  250.33   49.26
   4  -5  -8  348.31   45.90
   4  -5  -7  122.02   39.13
   4  -5  -6  336.99   34.39
   4  -5  -6  315.16   34.59
   4  -5  -6  294.46   24.96
   4  -5  -5  443.14   35.65
   4  -5  -5  370.28   32.94
   4  -5  -4  648.75   34.21
   4  -5  -4  603.40   31.83
   4  -5  -4  632.66   33.46
   4  -5  -3  575.51   32.87
   4  -5  -3  534.11   35.21
   4  -5  -3  549.41   37.56
   4  -5  -2  456.27   31.11
   4  -5  -2  412.43   37.98
   4  -5  -2  409.45   38.96
   4  -5  -1  392.35   30.90
   4  -5  -1  408.23   37.81
   4  -5  -1  413.17   45.83
   4  -5   0 1168.47   42.49
   4  -5   0 1262.88   51.12
   4  -5   0 1297.67   56.51
   4  -5   1  917.74   39.82
   4  -5   1 1050.37   48.82
   4  -5   1 1142.87   52.48
   4  -5   2  453.62   42.05
   4  -5   2  363.48   29.60
   4  -5   3  679.27   47.75
   4  -5   3  708.11   43.66
   4  -5   4  425.37   46.78
   4  -5   4  455.27   45.37
   4  -5   5  617.28   39.15
   4  -5   5  633.45   54.15
   4  -5   5  645.31   52.80
   4  -5   6  579.96   40.58
   4  -5   6  579.98   56.06
   4  -5   6  578.88   54.95
   4  -5   7  640.89   41.77
   4  -5   7  620.85   54.91
   4  -5   8  469.11   42.19
   4  -5   8  516.01   55.35
   4  -5   8  446.50   59.74
   4  -5   9  447.23   44.11
   4  -5   9  569.31   59.77
   4  -4  -9  589.10   53.88
   4  -4  -8  436.55   47.82
   4  -4  -7  295.85   40.59
   4  -4  -7  257.95   39.69
   4  -4  -6  498.94   38.24
   4  -4  -6  569.60   39.76
   4  -4  -5  777.53   38.62
   4  -4  -5  753.52   38.69
   4  -4  -4  460.89   34.85
   4  -4  -4  502.65   33.13
   4  -4  -4  444.91   26.64
   4  -4  -4  503.56   36.80
   4  -4  -3  308.41   25.77
   4  -4  -3  277.02   26.65
   4  -4  -2  594.33   28.77
   4  -4  -2  624.04   33.91
   4  -4  -2  600.17   38.10
   4  -4  -1  535.96   31.44
   4  -4  -1  664.84   37.44
   4  -4  -1  660.20   40.58
   4  -4   0  242.44   27.59
   4  -4   0  210.88   33.37
   4  -4   0  212.65   39.69
   4  -4   1  269.03   25.99
   4  -4   1  208.78   34.54
   4  -4   1  221.77   40.64
   4  -4   2  278.56   36.83
   4  -4   2  298.13   27.76
   4  -4   3  987.52   40.49
   4  -4   3  933.38   48.35
   4  -4   3  937.01   44.49
   4  -4   4  551.94   39.73
   4  -4   4  608.87   46.64
   4  -4   4  577.74   42.61
   4  -4   5  145.26   40.85
   4  -4   5  149.42   36.43
   4  -4   5  155.67   43.83
   4  -4   6  131.03   46.11
   4  -4   6  176.78   41.11
   4  -4   6  141.31   46.89
   4  -4   7  183.40   51.71
   4  -4   7  309.05   46.41
   4  -4   8  210.59   49.02
   4  -4   8  191.60   51.55
   4  -4   9  118.89   49.50
   4  -4   9  117.60   51.96
   4  -4  10  157.40   54.41
   4  -4  10  139.49   54.64
   4  -3  -9  146.64   49.00
   4  -3  -8   66.66   43.97
   4  -3  -7   37.71   36.80
   4  -3  -7   20.95   40.23
   4  -3  -5   45.39   29.85
   4  -3  -5   68.42   30.27
   4  -3  -4   51.40   27.04
   4  -3  -4   46.73   20.28
   4  -3  -4  103.55   30.05
   4  -3  -3   66.90   22.87
   4  -3  -3   70.93   22.24
   4  -3  -3   79.63   27.78
   4  -3  -2   53.51   22.54
   4  -3  -1   48.69   16.37
   4  -3  -1   47.87   23.65
   4  -3  -1   20.80   29.09
   4  -3   0   95.13   22.42
   4  -3   0   44.30   27.06
   4  -3   0  133.75   32.43
   4  -3   1  698.40   37.36
   4  -3   1  662.71   41.10
   4  -3   2  561.98   31.61
   4  -3   2  725.67   41.10
   4  -3   2  596.08   35.33
   4  -3   2  653.68   38.46
   4  -3   3  454.97   29.94
   4  -3   3  404.49   31.81
   4  -3   3  424.69   39.03
   4  -3   3  389.02   35.45
   4  -3   4  347.41   34.38
   4  -3   4  363.09   39.66
   4  -3   4  319.36   37.64
   4  -3   5  313.51   35.50
   4  -3   5  337.18   41.76
   4  -3   5  305.77   39.98
   4  -3   6  995.59   50.65
   4  -3   6 1065.54   54.05
   4  -3   6  960.18   54.02
   4  -3   7  734.22   50.51
   4  -3   7  660.86   53.97
   4  -3   8  734.62   53.49
   4  -3   8  699.43   57.62
   4  -3   9  423.05   52.39
   4  -3   9  385.41   51.62
   4  -3  10  458.32   55.91
   4  -3  10  514.37   55.80
   4  -3  11  457.47   60.31
   4  -3  11  474.49   57.70
   4  -2  -8  269.50   47.49
   4  -2  -7  352.44   42.60
   4  -2  -7  373.32   47.52
   4  -2  -6  219.86   35.79
   4  -2  -6  194.36   41.19
   4  -2  -5  347.61   33.46
   4  -2  -5  422.06   36.52
   4  -2  -4  779.80   36.55
   4  -2  -4  753.09   39.73
   4  -2  -3  831.33   29.70
   4  -2  -3  795.10   36.33
   4  -2  -3  792.81   33.72
   4  -2  -2  752.95   31.34
   4  -2  -2  726.34   29.91
   4  -2  -2  706.92   27.92
   4  -2  -1  554.52   27.85
   4  -2  -1  542.17   32.22
   4  -2   0  980.01   35.86
   4  -2   0  945.08   38.70
   4  -2   1 2463.03   60.09
   4  -2   1 2424.75   66.27
   4  -2   1 2306.09   62.33
   4  -2   2 2530.24   61.99
   4  -2   2 2406.78   61.90
   4  -2   2 2390.88   64.75
   4  -2   2 2538.68   63.50
   4  -2   2 2460.99   68.99
   4  -2   3 1165.49   41.58
   4  -2   3 1314.22   46.18
   4  -2   3 1197.43   44.48
   4  -2   4 3688.08   94.65
   4  -2   4 3999.13   96.19
   4  -2   4 3870.80   96.54
   4  -2   5 2421.31   71.31
   4  -2   5 2459.59   70.92
   4  -2   5 2455.39   72.42
   4  -2   6  747.66   43.73
   4  -2   6  783.86   45.81
   4  -2   6  793.03   46.46
   4  -2   7  438.37   42.40
   4  -2   7  483.49   43.66
   4  -2   7  436.31   43.77
   4  -2   8  884.17   54.07
   4  -2   8  944.21   56.86
   4  -2   9 1100.86   61.27
   4  -2   9 1160.44   59.50
   4  -2   9 1153.98   62.98
   4  -2  10  813.19   60.63
   4  -2  10  863.53   57.39
   4  -2  11  147.24   53.25
   4  -2  11  182.01   50.67
   4  -1  -6  810.06   43.42
   4  -1  -6  808.41   50.66
   4  -1  -5 1346.06   47.68
   4  -1  -5 1444.15   54.69
   4  -1  -4  841.68   37.16
   4  -1  -4  950.84   42.65
   4  -1  -3  573.86   30.30
   4  -1  -3  547.99   33.91
   4  -1  -2 1156.86   40.69
   4  -1  -2 1229.02   37.57
   4  -1  -1 2652.86   63.77
   4  -1  -1 2628.87   63.77
   4  -1   0 2284.69   56.30
   4  -1   0 2079.77   57.99
   4  -1   1 1135.20   37.84
   4  -1   1 1167.74   31.17
   4  -1   1 1081.71   41.22
   4  -1   2  138.84   31.14
   4  -1   2  209.01   20.99
   4  -1   3  664.33   30.83
   4  -1   3  634.97   33.63
   4  -1   3  735.64   34.19
   4  -1   3  632.10   36.83
   4  -1   4 2385.79   65.75
   4  -1   4 2501.58   67.02
   4  -1   5 2127.59   62.37
   4  -1   5 2135.99   63.96
   4  -1   6   43.55   33.38
   4  -1   6   73.41   32.69
   4  -1   7   58.32   34.61
   4  -1   7   64.82   35.29
   4  -1   8   70.48   40.77
   4  -1   9   61.28   43.48
   4  -1   9   33.37   43.20
   4  -1  10   39.28   47.07
   4  -1  10   44.83   43.77
   4  -1  10   55.68   43.53
   4  -1  11   41.97   48.95
   4  -1  11  104.67   45.38
   4  -1  12  157.44   48.10
   4  -1  12   86.24   54.47
   4  -1  12  147.72   47.63
   4   0  -2   75.75   21.20
   4   0  -2   77.80   27.14
   4   0  -1  106.66   22.48
   4   0   0  392.89   24.55
   4   0   0  381.03   25.56
   4   0   1   64.39   10.60
   4   0   1  225.80   22.85
   4   0   1  113.48   11.09
   4   0   1  167.61   25.82
   4   0   2  142.00   19.23
   4   0   2  118.96   22.76
   4   0   2  159.67   25.95
   4   0   3  247.15   23.28
   4   0   3  222.68   24.85
   4   0   3  301.58   29.66
   4   0   4  301.26   27.45
   4   0   4  304.76   27.21
   4   0   4  345.01   31.23
   4   0   5  593.05   34.97
   4   0   5  562.47   33.32
   4   0   6 1131.54   46.92
   4   0   6 1191.25   44.90
   4   0   7 1074.95   48.85
   4   0   7 1074.47   45.10
   4   0   8  408.01   41.83
   4   0   9 1567.13   65.53
   4   0   9 1583.06   57.81
   4   0  10 1164.63   62.15
   4   0  10 1208.31   53.97
   4   0  11  824.97   49.93
   4   0  12  337.81   44.07
   4   1  -4  394.85   32.61
   4   1  -4  443.60   30.65
   4   1  -3  837.39   33.63
   4   1  -3  952.52   43.84
   4   1  -3  842.02   35.63
   4   1  -2  898.67   32.09
   4   1  -2  973.35   40.10
   4   1  -2  826.09   30.99
   4   1  -1  935.41   37.13
   4   1  -1  915.85   30.79
   4   1  -1  739.24   26.16
   4   1   0 4104.88   88.50
   4   1   0 3829.53   91.46
   4   1   1 3349.06   82.09
   4   1   1 3743.29   80.27
   4   1   2  318.13   19.63
   4   1   2  353.36   18.57
   4   1   3 2483.99   57.56
   4   1   3 2345.07   60.22
   4   1   3 2202.44   57.89
   4   1   3 2569.89   59.94
   4   1   4 1879.42   51.54
   4   1   4 1779.20   50.41
   4   1   4 1872.28   53.44
   4   1   5 3904.98   90.24
   4   1   5 3615.27   87.70
   4   1   6 1963.31   58.11
   4   1   6 1904.86   54.78
   4   1   7 1112.21   46.98
   4   1   7 1113.44   42.57
   4   1   8  599.00   41.46
   4   1   9 1683.11   64.73
   4   1   9 1623.01   55.80
   4   1  10 1294.89   62.46
   4   1  10 1246.19   52.41
   4   1  11  454.30   53.12
   4   1  11  446.03   42.26
   4   1  12  171.61   38.88
   4   1  13   87.82   38.73
   4   2  -5 1540.29   51.93
   4   2  -4 2315.73   68.74
   4   2  -3 1792.90   56.10
   4   2  -3 1928.15   50.31
   4   2  -2  379.94   36.23
   4   2  -2  408.69   28.30
   4   2  -2  410.96   24.77
   4   2  -1 1192.24   44.56
   4   2  -1 1269.98   37.36
   4   2  -1 1414.03   47.15
   4   2  -1 1264.25   36.41
   4   2   0 4759.84  103.01
   4   2   0 4817.63  103.79
   4   2   0 5019.27  105.04
   4   2   0 5006.94  109.89
   4   2   1 5578.12  117.86
   4   2   1 5391.86  120.09
   4   2   1 5630.94  120.40
   4   2   2  202.42   23.61
   4   2   2  225.26   26.58
   4   2   3   12.94   22.00
   4   2   4  415.54   26.34
   4   2   4  434.58   24.66
   4   2   4  459.23   27.31
   4   2   4  419.34   27.41
   4   2   5  780.32   35.71
   4   2   5  782.57   34.11
   4   2   5  806.23   33.41
   4   2   5  807.31   34.54
   4   2   5  792.09   36.22
   4   2   6  583.29   30.38
   4   2   6  636.86   34.70
   4   2   6  530.85   37.43
   4   2   6  515.03   30.47
   4   2   7    7.98   25.33
   4   2   7  -45.02   37.46
   4   2   7    1.77   26.74
   4   2   7    4.36   29.42
   4   2   8  -41.44   43.79
   4   2   8  -28.27   32.53
   4   2   9   60.76   46.25
   4   2   9   36.99   29.43
   4   2   9   47.08   36.79
   4   2  10   94.32   33.90
   4   2  10  139.49   42.79
   4   2  11  356.21   64.74
   4   2  11  165.26   46.91
   4   2  12  297.09   70.23
   4   2  13  269.56   76.07
   4   2  13  163.51   54.39
   4   3  -8  267.60   57.60
   4   3  -7  134.06   53.91
   4   3  -4  699.84   34.97
   4   3  -4  638.67   49.46
   4   3  -3  238.71   39.97
   4   3  -3  215.71   34.70
   4   3  -2  101.39   35.74
   4   3  -2    0.22   28.31
   4   3  -1   90.09   32.26
   4   3  -1   -5.56   19.22
   4   3  -1   20.83   23.10
   4   3  -1   67.36   24.09
   4   3   0   -1.29   19.42
   4   3   0   14.60   32.08
   4   3   0   26.82   22.71
   4   3   0   33.50   19.09
   4   3   1  360.07   30.81
   4   3   1  325.98   23.01
   4   3   2   60.11   23.69
   4   3   2   34.83   25.42
   4   3   2   55.88   26.73
   4   3   3  123.58   28.32
   4   3   3  136.94   20.73
   4   3   4  280.60   28.77
   4   3   4   -0.18    3.44
   4   3   5 1144.27   40.08
   4   3   5 1049.42   38.85
   4   3   5 1174.75   36.76
   4   3   5 1035.12   31.83
   4   3   5 1078.52   41.20
   4   3   6 1188.16   40.04
   4   3   6 1041.69   43.19
   4   3   6  971.65   34.31
   4   3   6 1031.86   43.66
   4   3   7 1388.25   45.39
   4   3   7 1300.57   49.70
   4   3   7 1208.00   50.47
   4   3   7 1271.36   52.46
   4   3   8  708.51   36.69
   4   3   8  599.71   47.56
   4   3   8  696.43   41.30
   4   3   8  634.31   46.96
   4   3   9  239.35   38.10
   4   3   9  287.89   47.65
   4   3   9  275.02   47.82
   4   3  10  884.89   45.27
   4   3  10 1078.28   64.11
   4   3  10  915.37   54.07
   4   3  10 1026.80   61.35
   4   3  11  946.99   47.59
   4   3  11 1022.85   69.43
   4   3  11 1125.20   69.82
   4   3  11  959.47   58.51
   4   3  12 1141.38   77.21
   4   3  13  392.37   73.01
   4   3  13  313.11   53.69
   4   4  -8    0.62   58.49
   4   4  -7   96.05   54.10
   4   4  -4  442.99   50.72
   4   4  -3  517.03   48.55
   4   4  -3  493.85   27.48
   4   4  -3  488.69   42.35
   4   4  -2  615.92   37.97
   4   4  -2  587.26   45.13
   4   4  -1 1169.66   41.84
   4   4  -1 1153.65   49.02
   4   4  -1 1160.71   43.79
   4   4   0 1423.70   37.29
   4   4   0 1472.49   45.31
   4   4   0 1435.64   43.58
   4   4   1 3678.52   87.03
   4   4   2 3570.13   85.47
   4   4   3 1134.99   40.28
   4   4   3 1078.15   36.31
   4   4   4  816.91   28.09
   4   4   5 1356.84   34.14
   4   4   6 3268.59   78.45
   4   4   6 2906.29   76.98
   4   4   7 1760.71   52.95
   4   4   7 1629.76   55.65
   4   4   7 1622.27   56.01
   4   4   8 1296.73   46.24
   4   4   8 1004.05   35.03
   4   4   8 1128.32   51.31
   4   4   8 1153.64   49.98
   4   4   9  304.10   36.30
   4   4   9  249.98   39.21
   4   4   9  289.52   43.89
   4   4   9  241.02   44.54
   4   4  10  762.34   55.79
   4   4  10  613.78   48.16
   4   4  10  615.44   53.60
   4   4  11  550.15   45.58
   4   4  11  478.23   42.57
   4   4  11  904.76   63.28
   4   4  11  524.44   50.59
   4   4  11  763.64   63.08
   4   4  12  309.36   44.60
   4   4  12  311.27   52.42
   4   4  12  264.85   45.98
   4   4  12  448.41   65.58
   4   4  13  224.72   68.41
   4   4  13  162.00   47.47
   4   4  13  168.59   43.19
   4   4  14  221.96   74.71
   4   4  14  153.92   54.54
   4   5  -7  562.12   65.08
   4   5  -6  442.61   57.69
   4   5  -6  365.28   61.98
   4   5  -4 1199.99   66.28
   4   5  -3 1821.49   69.75
   4   5  -2 1252.10   52.35
   4   5  -2 1236.56   56.80
   4   5  -1  631.41   38.11
   4   5  -1  622.90   45.27
   4   5  -1  607.65   39.59
   4   5   0  687.15   34.97
   4   5   0  679.58   37.74
   4   5   0  674.02   34.24
   4   5   1 1358.95   45.60
   4   5   1 1371.87   46.07
   4   5   2 1727.36   51.97
   4   5   3  840.49   37.60
   4   5   6  366.91   30.44
   4   5   7   79.93   30.67
   4   5   8   76.48   32.45
   4   5   8   99.41   37.06
   4   5   9   92.98   35.05
   4   5   9  103.40   40.53
   4   5   9   27.66   18.73
   4   5   9   90.75   40.56
   4   5  10   63.65   25.36
   4   5  10   84.45   47.81
   4   5  10  118.06   47.69
   4   5  10   61.62   39.08
   4   5  11  284.82   43.86
   4   5  11  168.80   44.63
   4   5  11  446.90   55.58
   4   5  11  165.63   32.91
   4   5  11  348.87   53.71
   4   5  12  306.27   46.96
   4   5  12  297.78   53.19
   4   5  12  195.86   38.80
   4   5  13  155.51   47.61
   4   5  13   49.97   41.49
   4   5  13  214.42   64.59
   4   5  14  144.15   47.69
   4   5  14   91.93   46.93
   4   5  14  194.50   69.86
   4   6  -6  122.44   65.66
   4   6  -6   73.33   56.69
   4   6  -5   44.00   53.02
   4   6  -3  208.44   54.38
   4   6  -2  108.46   49.29
   4   6  -1  -41.11   38.53
   4   6   0   36.23   34.10
   4   6   0   70.08   30.83
   4   6   1  179.07   33.35
   4   6   1  135.99   30.67
   4   6   2  230.37   28.03
   4   6   2  185.80   31.22
   4   6   3  214.84   29.40
   4   6   3  186.00   31.25
   4   6   4   45.05   26.43
   4   6   4   64.08   29.79
   4   6   5  210.93   29.08
   4   6   5  217.90   31.35
   4   6   6  430.95   30.75
   4   6   6  408.43   33.00
   4   6   7  917.52   43.39
   4   6   8  995.37   48.92
   4   6   9  486.75   42.31
   4   6  10  282.07   46.44
   4   6  10  344.91   44.35
   4   6  11  945.15   57.40
   4   6  11  926.39   57.06
   4   6  12  900.67   56.01
   4   6  12  767.69   34.12
   4   6  13  454.50   52.93
   4   6  13  384.95   35.56
   4   6  13  530.92   63.54
   4   6  14  225.89   53.04
   4   6  14  206.70   39.23
   4   6  14  252.34   66.32
   4   7  -5  101.86   60.03
   4   7  -5  109.89   68.62
   4   7  -3  546.93   63.04
   4   7  -1  665.42   52.02
   4   7   0  199.94   34.65
   4   7   0  174.96   41.81
   4   7   0  245.13   37.37
   4   7   1  806.37   46.35
   4   7   2 2892.32   78.38
   4   7   2 2870.14   79.22
   4   7   3 1913.40   61.09
   4   7   3 1956.27   61.23
   4   7   4  154.38   33.12
   4   7   4  208.58   33.51
   4   7   5  422.44   38.08
   4   7   5  436.26   35.52
   4   7   6 1197.89   48.06
   4   7   6 1059.35   44.32
   4   7   7 1352.90   51.95
   4   7   7 1242.84   46.97
   4   7   8  802.32   45.16
   4   7   9  509.41   45.44
   4   7   9  433.05   35.33
   4   7  10  402.59   46.92
   4   7  10  443.50   50.32
   4   7  11  560.23   54.68
   4   7  12  385.34   53.24
   4   7  13  214.96   52.25
   4   8  -4  516.97   65.43
   4   8   0  691.44   44.39
   4   8   0  623.26   52.32
   4   8   1  241.99   40.33
   4   8   1  246.59   39.19
   4   8   1  290.68   38.42
   4   8   1  221.47   43.84
   4   8   2  459.79   42.40
   4   8   2  409.03   27.25
   4   8   2  487.46   41.01
   4   8   3  565.07   42.20
   4   8   3  561.80   32.62
   4   8   3  557.62   41.18
   4   8   4  418.14   39.57
   4   8   4  399.09   40.62
   4   8   5  482.47   40.31
   4   8   5  392.62   40.46
   4   8   6  154.44   35.75
   4   8   6  222.62   39.63
   4   8   7   58.53   33.91
   4   8   7   77.55   36.24
   4   8   8   58.10   38.63
   4   8   8   49.07   40.77
   4   8   9  104.22   35.47
   4   8   9  214.84   42.90
   4   8   9  140.67   44.30
   4   8  10   31.98   35.63
   4   8  10  144.93   45.54
   4   8  10  105.47   48.09
   4   8  11    2.42   34.22
   4   8  11  102.48   46.81
   4   8  11   76.84   50.19
   4   9  -3   55.82   60.77
   4   9   0  134.68   41.17
   4   9   1  127.29   41.64
   4   9   1   97.67   44.55
   4   9   1  115.29   47.09
   4   9   2  101.97   40.39
   4   9   2   88.37   19.50
   4   9   2  166.41   42.03
   4   9   2  101.90   43.29
   4   9   3  193.83   41.76
   4   9   3  111.94   29.33
   4   9   4   94.24   40.97
   4   9   4  101.65   39.91
   4   9   4  119.48   31.65
   4   9   5   16.96   40.06
   4   9   5   23.49   39.85
   4   9   5   17.19   34.43
   4   9   6   84.19   39.11
   4   9   6  134.17   41.71
   4   9   6   88.90   38.22
   4   9   7  482.39   43.38
   4   9   7  514.46   48.27
   4   9   8  688.73   52.10
   4   9   9  100.51   39.41
   4   9   9  162.59   44.88
   4   9   9  160.91   48.24
   4   9  10   55.86   38.51
   4   9  10  165.04   47.44
   4   9  10  179.18   50.34
   4   9  11  140.74   38.32
   4   9  12  254.30   38.95
   4  10   0  296.99   46.22
   4  10   1  252.64   52.54
   4  10   1  177.69   45.26
   4  10   2  353.92   51.95
   4  10   2  333.85   46.94
   4  10   2  284.72   49.49
   4  10   3  621.39   50.87
   4  10   3  693.10   51.11
   4  10   3  560.94   30.99
   4  10   3  661.13   53.89
   4  10   4  695.49   38.80
   4  10   4  682.18   52.67
   4  10   5  383.37   48.40
   4  10   5  366.21   40.91
   4  10   5  328.13   49.41
   4  10   6  558.01   50.40
   4  10   6  558.75   44.61
   4  10   6  550.78   49.63
   4  10   7  623.39   53.89
   4  10   7  659.35   48.84
   4  10   7  605.33   50.42
   4  10   8  662.74   52.40
   4  10   8  679.62   54.85
   4  10   9  335.74   45.54
   4  10  10  160.14   43.70
   4  10  11  257.43   43.89
   4  10  12  101.71   42.13
   4  10  13  107.48   41.60
   4  11   1  458.66   61.10
   4  11   1  371.78   52.37
   4  11   2  301.96   54.17
   4  11   2  253.05   48.24
   4  11   3  264.89   49.96
   4  11   3  134.89   19.74
   4  11   3  289.17   53.10
   4  11   3  268.23   51.61
   4  11   4  305.71   51.59
   4  11   4  300.27   32.84
   4  11   4  299.17   52.68
   4  11   5  102.75   49.17
   4  11   5  153.50   37.80
   4  11   6  156.91   50.10
   4  11   6  163.63   49.48
   4  11   6  242.05   42.43
   4  11   7  295.81   51.35
   4  11   7  441.07   47.23
   4  11   8  148.62   47.79
   4  11   9  197.18   50.43
   4  11   9   52.10   46.94
   4  11  10   79.34   51.39
   4  11  10   19.32   44.70
   4  11  11   31.69   45.31
   4  11  12  -20.57   43.86
   4  12   3   85.42   56.21
   4  12   4   88.49   25.26
   4  12   4  121.55   51.27
   4  12   4  117.54   54.64
   4  12   5   67.61   52.91
   4  12   5   24.15   33.59
   4  12   6   10.83   53.92
   4  12   6   26.78   39.97
   4  12   7   72.69   54.95
   4  12   7   57.88   44.51
   4  12   8  276.46   48.92
   4  12   9  274.12   55.33
   4  12   9  373.65   53.30
   4  12  10   43.04   50.39
   4  12  11    9.62   49.23
   4  13   7  358.01   64.16
   4  13   7  375.85   47.71
   4  13   8  309.91   51.32
   5 -12  -6  173.67   58.59
   5 -12  -5   91.26   57.61
   5 -12  -4   59.36   55.74
   5 -12  -3  104.66   54.62
   5 -12  -2   68.46   53.32
   5 -11  -8   41.97   57.26
   5 -11  -8  -63.46   68.99
   5 -11  -8  -59.62   51.01
   5 -11  -8   27.78   51.25
   5 -11  -7   24.34   54.41
   5 -11  -6   38.22   56.05
   5 -11  -6   46.19   56.02
   5 -11  -5  133.69   52.68
   5 -11  -5   51.70   58.84
   5 -11  -5  149.34   60.79
   5 -11  -4   19.21   65.02
   5 -11  -4   33.17   50.39
   5 -11  -3   50.30   50.94
   5 -11  -2  279.48   50.98
   5 -11  -1  138.81   50.20
   5 -11   0   24.33   48.37
   5 -11   1   40.87   46.11
   5 -10  -9   64.97   54.85
   5 -10  -9   29.73   68.56
   5 -10  -9  113.19   49.52
   5 -10  -9   55.20   39.09
   5 -10  -8   84.35   53.27
   5 -10  -8   53.66   63.34
   5 -10  -8   26.59   43.36
   5 -10  -8   51.55   49.14
   5 -10  -7  140.84   52.86
   5 -10  -7   82.96   50.50
   5 -10  -7  235.97   59.03
   5 -10  -6  325.40   55.48
   5 -10  -6  383.46   54.39
   5 -10  -5  261.60   57.33
   5 -10  -5  423.28   60.43
   5 -10  -3   88.12   46.88
   5 -10  -2  420.55   61.60
   5 -10  -2  381.17   51.11
   5 -10  -1  536.04   53.23
   5 -10   0  289.71   46.92
   5 -10   1  162.33   43.96
   5 -10   2  143.96   42.49
   5 -10   3  118.46   40.88
   5  -9 -10  198.30   57.25
   5  -9 -10  125.41   26.77
   5  -9 -10  249.25   52.89
   5  -9  -9  113.86   53.00
   5  -9  -9   96.17   48.76
   5  -9  -9   88.04   34.97
   5  -9  -8   56.96   49.15
   5  -9  -8  105.79   65.01
   5  -9  -8   77.67   38.40
   5  -9  -8  117.89   60.98
   5  -9  -8  105.76   46.60
   5  -9  -7  107.35   48.42
   5  -9  -7   -6.54   42.80
   5  -9  -7  124.08   47.48
   5  -9  -7  120.22   56.50
   5  -9  -6  218.52   47.78
   5  -9  -6  307.04   48.70
   5  -9  -5  234.37   50.54
   5  -9  -5  312.96   46.38
   5  -9  -4  116.13   45.51
   5  -9  -2   28.31   50.19
   5  -9  -1  104.95   42.05
   5  -9  -1   46.15   51.45
   5  -9  -1   54.30   65.79
   5  -9   0   72.33   39.03
   5  -9   0  104.64   53.39
   5  -9   0  159.67   68.66
   5  -9   1   48.83   38.94
   5  -9   1  159.15   67.07
   5  -9   2  -20.53   38.41
   5  -9   3   26.86   37.86
   5  -9   4   51.75   38.94
   5  -8 -10   -1.95   54.52
   5  -8 -10   46.63   52.11
   5  -8  -9  -58.10   50.64
   5  -8  -9   13.59   26.15
   5  -8  -9   -9.44   48.17
   5  -8  -8    0.81   44.99
   5  -8  -8   17.18   32.36
   5  -8  -8   -1.93   45.79
   5  -8  -7  -42.59   43.29
   5  -8  -7   28.15   34.83
   5  -8  -7  -28.15   43.47
   5  -8  -7   44.01   57.59
   5  -8  -6   12.70   39.64
   5  -8  -6  102.60   43.28
   5  -8  -5  -20.14   42.74
   5  -8  -5   40.41   41.51
   5  -8  -4  154.35   39.93
   5  -8  -3   28.26   43.81
   5  -8  -3   46.76   37.99
   5  -8  -2   28.42   46.14
   5  -8  -2  112.12   55.53
   5  -8  -1   75.94   49.45
   5  -8  -1   44.86   62.71
   5  -8   0  180.05   51.29
   5  -8   0  291.13   63.24
   5  -8   1  152.62   38.16
   5  -8   1  172.00   51.93
   5  -8   2  163.05   38.21
   5  -8   2  201.33   53.58
   5  -8   3  129.86   39.98
   5  -8   4  261.42   41.45
   5  -8   5  438.21   43.34
   5  -8   6  269.45   41.29
   5  -7 -11   52.82   58.67
   5  -7 -10  102.39   55.52
   5  -7 -10  144.12   55.22
   5  -7  -9  212.91   52.25
   5  -7  -9  205.14   51.11
   5  -7  -8   56.80   45.50
   5  -7  -8   67.54   27.02
   5  -7  -8   67.28   43.94
   5  -7  -7  125.55   42.63
   5  -7  -7   86.72   31.30
   5  -7  -7   74.95   53.16
   5  -7  -6  379.17   43.49
   5  -7  -6  317.55   35.90
   5  -7  -5  880.82   48.02
   5  -7  -5  761.56   46.94
   5  -7  -4  331.21   39.97
   5  -7  -4  384.30   46.06
   5  -7  -3  225.74   37.33
   5  -7  -3  256.55   43.20
   5  -7  -3  257.60   47.19
   5  -7  -2   96.68   33.99
   5  -7  -2  126.03   41.66
   5  -7  -2  164.50   49.10
   5  -7  -1  513.92   40.41
   5  -7  -1  510.26   52.21
   5  -7  -1  596.55   62.73
   5  -7   0 1025.78   58.40
   5  -7   0 1116.37   68.03
   5  -7   1  793.91   56.61
   5  -7   1  898.81   65.95
   5  -7   2  344.80   38.79
   5  -7   2  397.77   52.10
   5  -7   2  538.53   58.49
   5  -7   3  509.25   54.86
   5  -7   3  408.68   41.07
   5  -7   4  270.95   54.58
   5  -7   4  257.60   38.73
   5  -7   5  283.10   40.34
   5  -7   6  348.66   40.68
   5  -7   7  205.25   40.40
   5  -6 -10  257.19   56.62
   5  -6 -10  340.45   57.31
   5  -6  -9  407.89   54.69
   5  -6  -9  485.12   55.18
   5  -6  -8  161.16   46.04
   5  -6  -7   91.88   26.73
   5  -6  -7  169.66   41.81
   5  -6  -6  283.75   39.27
   5  -6  -6  253.89   30.97
   5  -6  -5  443.15   35.48
   5  -6  -5  480.52   40.15
   5  -6  -4  488.80   37.97
   5  -6  -3  165.85   33.26
   5  -6  -3  205.90   37.67
   5  -6  -3  178.72   39.73
   5  -6  -2   89.60   30.72
   5  -6  -2   57.60   39.23
   5  -6  -2   92.10   42.33
   5  -6  -1  160.89   32.47
   5  -6  -1  169.97   40.27
   5  -6  -1  200.59   47.80
   5  -6   0  255.56   33.25
   5  -6   0  309.70   43.42
   5  -6   0  253.93   52.14
   5  -6   1  195.03   35.05
   5  -6   1  276.91   44.10
   5  -6   1  328.38   52.58
   5  -6   2   47.11   43.04
   5  -6   2  206.99   50.71
   5  -6   3   64.53   45.06
   5  -6   4  176.65   50.99
   5  -6   4  208.22   35.98
   5  -6   5   90.50   38.19
   5  -6   5  128.80   53.61
   5  -6   5  183.23   50.31
   5  -6   6   62.79   55.01
   5  -6   6   28.57   42.20
   5  -6   7  111.27   43.19
   5  -6   8  115.38   45.90
   5  -5 -10   15.52   55.36
   5  -5  -9   59.42   50.99
   5  -5  -8    7.71   44.99
   5  -5  -7   41.10   40.54
   5  -5  -6   71.51   36.23
   5  -5  -6   46.26   24.56
   5  -5  -6   93.30   35.89
   5  -5  -5   18.82   31.45
   5  -5  -5   34.27   27.11
   5  -5  -5   17.55   35.65
   5  -5  -4  111.43   29.77
   5  -5  -3   60.76   27.16
   5  -5  -3   53.38   28.27
   5  -5  -3    4.68   33.62
   5  -5  -2  -14.90   27.71
   5  -5  -2    1.32   31.59
   5  -5  -2   -4.31   37.65
   5  -5  -1   55.83   29.43
   5  -5  -1   84.66   35.69
   5  -5  -1   77.01   41.23
   5  -5   0  343.90   32.65
   5  -5   0  339.20   41.16
   5  -5   0  265.73   46.66
   5  -5   1  548.31   36.37
   5  -5   1  589.96   46.73
   5  -5   1  610.17   52.07
   5  -5   2  222.46   31.60
   5  -5   2  226.76   42.41
   5  -5   2  352.78   47.56
   5  -5   3  237.62   44.93
   5  -5   4  228.79   47.45
   5  -5   4  279.17   43.38
   5  -5   5  453.63   42.36
   5  -5   5  601.14   56.55
   5  -5   5  595.00   51.53
   5  -5   6  545.30   46.76
   5  -5   6  578.10   56.66
   5  -5   6  646.67   57.96
   5  -5   7  368.68   44.39
   5  -5   7  457.36   53.73
   5  -5   8  356.51   45.19
   5  -5   8  369.76   55.90
   5  -5   9  390.02   48.19
   5  -5   9  431.93   59.57
   5  -4  -9  157.68   52.51
   5  -4  -8   96.94   45.70
   5  -4  -7  140.73   41.77
   5  -4  -7  119.51   41.73
   5  -4  -6  109.37   37.01
   5  -4  -6  125.84   38.26
   5  -4  -5  237.18   26.59
   5  -4  -5  275.17   36.03
   5  -4  -5  256.23   36.33
   5  -4  -4  562.20   34.29
   5  -4  -4  568.35   38.84
   5  -4  -3  754.48   36.19
   5  -4  -3  883.41   36.46
   5  -4  -2  741.00   36.55
   5  -4  -2  838.49   42.51
   5  -4  -1 1000.68   39.25
   5  -4  -1  995.84   42.41
   5  -4  -1  997.35   47.48
   5  -4   0  751.60   36.72
   5  -4   0  777.37   40.78
   5  -4   0  840.22   47.44
   5  -4   1  573.54   33.60
   5  -4   1  652.93   40.31
   5  -4   1  666.42   47.67
   5  -4   2  787.39   37.91
   5  -4   2  777.00   46.11
   5  -4   2  819.25   50.52
   5  -4   3 1060.57   47.12
   5  -4   3 1176.43   54.32
   5  -4   3 1284.90   56.00
   5  -4   3 1125.24   50.09
   5  -4   4  754.01   41.38
   5  -4   4  862.42   51.15
   5  -4   4  832.28   48.71
   5  -4   5  561.47   43.22
   5  -4   5  517.14   48.77
   5  -4   5  514.40   46.65
   5  -4   6  733.99   50.62
   5  -4   6  660.01   53.83
   5  -4   6  620.95   54.31
   5  -4   7  775.65   55.80
   5  -4   7  736.47   60.78
   5  -4   8  687.03   57.96
   5  -4   9  641.77   59.77
   5  -4   9  589.25   60.05
   5  -4  10  345.29   59.67
   5  -3  -8  410.10   51.16
   5  -3  -7  181.96   43.07
   5  -3  -7  247.04   44.82
   5  -3  -6  371.55   42.92
   5  -3  -6  419.14   41.06
   5  -3  -5  641.69   41.19
   5  -3  -5  608.99   40.24
   5  -3  -4  394.52   36.34
   5  -3  -4  371.01   33.91
   5  -3  -3  648.57   37.95
   5  -3  -3  667.69   32.34
   5  -3  -2  515.77   30.52
   5  -3  -2  524.13   24.81
   5  -3  -1  606.78   33.67
   5  -3  -1  510.04   37.51
   5  -3   0  591.21   29.98
   5  -3   0  601.78   34.88
   5  -3   0  615.64   39.42
   5  -3   1  409.75   29.03
   5  -3   1  425.52   34.05
   5  -3   1  386.13   40.60
   5  -3   2  111.48   29.90
   5  -3   2  153.31   32.50
   5  -3   2  133.63   39.57
   5  -3   2  170.40   25.80
   5  -3   3  279.90   31.32
   5  -3   3  278.44   32.49
   5  -3   3  283.68   40.03
   5  -3   3  305.57   36.05
   5  -3   4  437.24   35.02
   5  -3   4  399.02   34.96
   5  -3   4  444.84   40.96
   5  -3   4  377.41   39.75
   5  -3   5  172.56   40.54
   5  -3   5  219.04   37.44
   5  -3   5  207.67   40.49
   5  -3   6  135.36   38.72
   5  -3   6   80.18   43.48
   5  -3   6  156.23   43.46
   5  -3   7  213.30   44.12
   5  -3   7  155.12   47.89
   5  -3   7  225.23   47.08
   5  -3   8  255.62   47.56
   5  -3   8  200.71   53.10
   5  -3   9  371.45   52.87
   5  -3   9  359.15   54.76
   5  -3  10  152.23   53.19
   5  -3  10   79.54   53.79
   5  -2  -7  105.55   44.92
   5  -2  -7   78.80   46.43
   5  -2  -6  331.27   38.86
   5  -2  -6  293.84   43.77
   5  -2  -5  191.42   36.15
   5  -2  -5  200.51   38.56
   5  -2  -4   11.37   30.17
   5  -2  -4   34.07   32.78
   5  -2  -3  163.39   27.92
   5  -2  -3  136.66   31.43
   5  -2  -2   42.41   25.42
   5  -2  -2   78.77   23.44
   5  -2  -2   78.44   29.59
   5  -2  -1   74.81   27.03
   5  -2   0   69.85   25.90
   5  -2   0   27.53   28.98
   5  -2   1  202.57   29.61
   5  -2   1  276.86   33.85
   5  -2   2  633.21   33.88
   5  -2   2  677.76   42.48
   5  -2   2  729.58   32.02
   5  -2   2  655.70   35.80
   5  -2   3  397.01   30.01
   5  -2   3  334.69   28.33
   5  -2   3  333.42   33.72
   5  -2   3  299.34   31.83
   5  -2   3  416.08   40.79
   5  -2   4  158.77   34.91
   5  -2   4  180.67   31.17
   5  -2   4  256.32   34.30
   5  -2   4  245.88   38.61
   5  -2   5  236.28   36.21
   5  -2   5  204.44   33.67
   5  -2   5  203.67   37.59
   5  -2   6  984.06   49.83
   5  -2   6  976.24   50.00
   5  -2   6 1017.54   51.05
   5  -2   7  712.39   49.11
   5  -2   7  797.33   50.84
   5  -2   7  793.76   52.49
   5  -2   8  651.77   51.49
   5  -2   8  727.63   54.05
   5  -2   9  303.56   51.04
   5  -2   9  325.64   51.58
   5  -2   9  307.53   51.93
   5  -2  10  394.59   56.20
   5  -2  10  448.83   54.90
   5  -2  11  588.10   62.15
   5  -2  11  595.85   59.79
   5  -1  -8  208.23   48.74
   5  -1  -6   89.64   39.06
   5  -1  -6   88.89   44.96
   5  -1  -5  109.99   34.87
   5  -1  -5   74.83   39.49
   5  -1  -4  305.78   36.50
   5  -1  -4  280.68   31.41
   5  -1  -3  965.64   37.98
   5  -1  -3  951.95   42.94
   5  -1  -2  471.36   33.69
   5  -1  -2  482.60   31.09
   5  -1  -1  343.00   27.96
   5  -1  -1  420.67   29.11
   5  -1  -1  374.62   31.71
   5  -1   0  611.36   31.94
   5  -1   1  876.11   35.68
   5  -1   1  834.06   39.54
   5  -1   2 1599.93   41.04
   5  -1   2 1389.77   42.05
   5  -1   2 1612.10   51.84
   5  -1   2 1458.94   47.14
   5  -1   3  373.89   27.74
   5  -1   3  399.42   28.14
   5  -1   3  364.12   30.58
   5  -1   3  364.41   38.63
   5  -1   3  405.58   28.82
   5  -1   4 1060.78   41.82
   5  -1   4 1079.86   44.70
   5  -1   4 1236.29   44.32
   5  -1   4 1196.28   49.15
   5  -1   5 1500.35   53.84
   5  -1   5 1564.12   54.18
   5  -1   6 2087.15   66.15
   5  -1   6 2049.61   67.75
   5  -1   7  722.41   46.02
   5  -1   7  676.59   46.23
   5  -1   8  943.33   54.88
   5  -1   9 1367.64   65.61
   5  -1   9 1509.15   62.82
   5  -1   9 1399.98   67.32
   5  -1  10 1007.13   63.82
   5  -1  10 1191.52   60.39
   5  -1  11  211.92   53.26
   5  -1  11  270.16   51.00
   5  -1  12   58.05   54.42
   5  -1  12  115.45   50.21
   5   0  -7  690.50   50.14
   5   0  -5  776.77   42.39
   5   0  -5  827.35   51.14
   5   0  -4 1020.44   42.54
   5   0  -4 1018.96   48.89
   5   0  -3  249.57   35.12
   5   0  -3  271.60   30.45
   5   0  -2  187.27   26.01
   5   0  -2  212.84   31.13
   5   0  -1  458.22   32.34
   5   0  -1  461.08   29.49
   5   0   0 1752.04   47.79
   5   0   0 1629.30   52.12
   5   0   1  363.38   26.79
   5   0   1  364.72   27.47
   5   0   2  660.17   30.92
   5   0   2  604.50   24.37
   5   0   2  656.67   35.96
   5   0   3  318.42   27.42
   5   0   4  645.55   34.53
   5   0   4  645.50   34.40
   5   0   4  702.16   38.94
   5   0   5  869.34   39.71
   5   0   5  888.43   40.08
   5   0   5  992.39   43.81
   5   0   6  259.58   35.68
   5   0   6  309.48   33.57
   5   0   7   84.37   33.96
   5   0   7  125.14   32.60
   5   0   8  128.92   39.04
   5   0   9   51.52   43.93
   5   0  10  -35.91   44.52
   5   0  10   35.02   41.44
   5   0  11   19.65   42.39
   5   0  12  130.80   45.95
   5   1  -7  101.58   45.02
   5   1  -6  300.00   41.26
   5   1  -4  799.25   50.54
   5   1  -3   28.80   35.95
   5   1  -3   57.71   27.36
   5   1  -2  204.89   26.09
   5   1  -2  257.95   33.11
   5   1  -2  187.82   20.70
   5   1  -1  114.11   30.91
   5   1  -1   68.04   25.87
   5   1   0  152.40   23.53
   5   1   1   56.36   27.03
   5   1   1   51.82   23.82
   5   1   2  208.14   24.69
   5   1   2  121.68   14.96
   5   1   3   49.08   20.19
   5   1   3   22.86   24.22
   5   1   3   19.64   22.86
   5   1   3   25.50   20.68
   5   1   3   33.78   25.92
   5   1   4  347.64   27.84
   5   1   4  325.93   28.01
   5   1   4  284.76   26.67
   5   1   4  381.26   29.93
   5   1   5  374.54   31.74
   5   1   5  330.91   30.90
   5   1   5  342.25   35.31
   5   1   6  574.43   37.08
   5   1   6  523.65   36.02
   5   1   6  598.92   36.49
   5   1   7  911.57   42.08
   5   1   7  964.94   45.12
   5   1   8  758.53   46.85
   5   1   9 1020.52   56.15
   5   1  10 1344.09   55.26
   5   1  10 1369.67   64.75
   5   1  11  947.74   51.46
   5   1  12  395.79   44.92
   5   1  13  572.03   82.84
   5   1  13  570.68   48.73
   5   2  -6   99.96   38.02
   5   2  -6  124.44   41.72
   5   2  -5   90.87   34.91
   5   2  -5   51.98   37.34
   5   2  -2 1159.54   50.60
   5   2  -2 1080.54   37.75
   5   2  -1  335.04   35.94
   5   2  -1  243.99   25.91
   5   2  -1  165.97   22.88
   5   2   0  656.70   25.53
   5   2   0  844.27   32.06
   5   2   0  853.84   39.52
   5   2   0  646.40   24.38
   5   2   1 2420.71   59.24
   5   2   1 2217.66   61.66
   5   2   2 1497.16   45.77
   5   2   4 1164.65   37.54
   5   2   4 1261.37   40.20
   5   2   4 1138.90   38.40
   5   2   5 2078.62   58.76
   5   2   5 2232.11   57.58
   5   2   5 2108.20   61.24
   5   2   5 2322.50   60.13
   5   2   6 1695.20   57.09
   5   2   6 1759.60   53.41
   5   2   6 1680.28   53.64
   5   2   6 1655.57   55.56
   5   2   6 1821.62   54.86
   5   2   7 1775.34   60.57
   5   2   7 1740.58   54.74
   5   2   7 1888.99   60.04
   5   2   8  784.23   49.78
   5   2   8  850.00   40.82
   5   2   8  894.89   46.16
   5   2   9  934.19   60.14
   5   2   9  966.08   51.78
   5   2  10  951.27   63.73
   5   2  10  781.39   45.24
   5   2  10 1018.03   56.44
   5   2  11 1105.36   71.90
   5   2  11  985.46   50.75
   5   2  11 1059.91   62.40
   5   2  12  340.21   70.43
   5   2  13  105.16   73.58
   5   3  -7  362.23   53.98
   5   3  -6  281.27   48.74
   5   3  -5  527.84   39.39
   5   3  -5  629.18   49.01
   5   3  -4 1074.19   43.33
   5   3  -3 1016.43   54.26
   5   3  -3 1006.34   38.91
   5   3  -2  620.84   44.85
   5   3  -1  855.35   44.12
   5   3  -1  863.77   35.32
   5   3  -1  868.78   32.50
   5   3   0 1292.87   38.99
   5   3   0 1350.79   40.74
   5   3   0 1495.64   51.72
   5   3   0 1415.81   39.61
   5   3   1 3745.35   84.08
   5   3   1 3490.06   87.20
   5   3   2 1223.30   41.24
   5   3   2 1181.30   44.52
   5   3   3  228.38   25.60
   5   3   3  226.32   32.37
   5   3   4  115.64   27.21
   5   3   4  116.32   25.15
   5   3   5  543.28   32.75
   5   3   5  515.79   32.68
   5   3   6  432.87   31.35
   5   3   6  380.52   37.44
   5   3   6  391.46   33.34
   5   3   7  237.55   30.34
   5   3   7  197.78   34.54
   5   3   7  194.46   34.18
   5   3   7  182.88   36.37
   5   3   8    0.25   29.90
   5   3   8  -12.48   33.50
   5   3   8  -54.86   40.96
   5   3   8  -19.26   36.77
   5   3   9    3.12   36.22
   5   3   9  -33.84   46.03
   5   3   9  -23.34   46.54
   5   3  10   94.66   34.83
   5   3  10   53.77   52.17
   5   3  10   42.36   40.51
   5   3  10   45.07   52.62
   5   3  11   89.72   60.46
   5   3  11   73.87   45.62
   5   3  11  104.53   59.17
   5   3  12  110.79   66.50
   5   3  13  258.82   72.83
   5   4  -7  180.74   55.77
   5   4  -6   91.62   49.70
   5   4  -5  189.98   47.16
   5   4  -4  581.15   47.80
   5   4  -4  564.41   35.22
   5   4  -4  530.96   57.03
   5   4  -3  400.64   29.74
   5   4  -3  389.95   49.97
   5   4  -2    2.52   42.12
   5   4  -2   -0.79   22.61
   5   4  -1   65.17   38.72
   5   4   0   70.88   33.06
   5   4   0   15.60   25.96
   5   4   1   99.18   25.30
   5   4   1   55.15   24.40
   5   4   2   43.52   30.51
   5   4   2   52.19   30.86
   5   4   3   43.50   27.67
   5   4   3   22.35   28.82
   5   4   3   14.77   32.07
   5   4   4  395.32   33.18
   5   4   4  344.09   26.23
   5   4   5 1101.06   42.91
   5   4   6 1805.72   53.66
   5   4   6 1781.34   56.25
   5   4   7 1141.52   45.45
   5   4   7  975.67   44.69
   5   4   8  381.78   36.32
   5   4   8  354.08   25.99
   5   4   8  350.97   39.30
   5   4   8  335.12   43.84
   5   4   9  538.59   40.63
   5   4   9  457.47   33.23
   5   4   9  474.42   45.81
   5   4   9  504.15   42.73
   5   4   9  486.68   46.39
   5   4  10 1301.18   64.28
   5   4  10 1274.61   64.62
   5   4  10 1209.04   58.59
   5   4  11 1715.60   63.09
   5   4  11 1720.33   75.52
   5   4  11 1813.58   76.43
   5   4  11 1558.22   70.17
   5   4  12  832.13   51.85
   5   4  12  924.74   70.47
   5   4  13  327.70   48.16
   5   4  13  324.71   68.33
   5   4  14  412.90   76.26
   5   4  14  322.59   52.78
   5   5  -6  -29.32   53.11
   5   5  -5  251.34   52.52
   5   5  -4  372.29   50.91
   5   5  -4  415.08   58.39
   5   5  -3  149.79   52.16
   5   5  -2  220.20   48.48
   5   5  -2  259.02   22.94
   5   5  -1  600.89   25.58
   5   5  -1  595.74   49.87
   5   5   0  599.86   43.99
   5   5   1 1204.43   44.18
   5   5   1 1176.07   48.26
   5   5   2 2605.23   72.78
   5   5   2 2722.49   72.07
   5   5   3 1082.45   46.59
   5   5   3 1192.55   45.54
   5   5   4 1720.24   54.75
   5   5   5 1689.02   53.33
   5   5   6 2234.07   64.10
   5   5   7 2272.27   63.94
   5   5   7 1969.21   45.70
   5   5   8 1327.81   47.05
   5   5   8 1312.74   51.68
   5   5   8 1224.08   52.40
   5   5   9  319.34   38.43
   5   5   9  322.99   43.23
   5   5   9  237.50   19.66
   5   5  10  413.15   44.71
   5   5  10  433.58   51.71
   5   5  10  372.91   27.91
   5   5  10  439.70   49.48
   5   5  11  730.83   51.15
   5   5  11  517.78   37.15
   5   5  11  804.20   59.91
   5   5  11  632.66   52.05
   5   5  11  600.82   36.89
   5   5  11  782.99   61.26
   5   5  12  501.88   50.14
   5   5  12  343.12   38.84
   5   5  12  590.54   62.75
   5   5  13  157.35   41.18
   5   5  13  360.23   66.53
   5   5  13  296.82   49.40
   5   5  14  134.89   43.98
   5   5  14  248.92   70.68
   5   5  14  117.24   49.01
   5   6  -5  467.41   60.80
   5   6  -4 1277.54   68.49
   5   6  -3 1464.22   69.95
   5   6  -3 1446.04   73.69
   5   6  -2 1280.12   67.10
   5   6  -1  331.08   49.73
   5   6   0  580.23   48.78
   5   6   0  520.58   23.57
   5   6   1 1347.17   49.66
   5   6   1 1164.49   37.81
   5   6   1 1242.03   49.17
   5   6   2 2577.50   72.65
   5   6   3  588.61   37.96
   5   6   4   97.16   31.82
   5   6   5  500.70   36.83
   5   6   6  437.36   35.28
   5   6   7  216.88   33.83
   5   6   8   94.01   35.34
   5   6   9   34.62   38.46
   5   6  10   40.06   32.51
   5   6  10   33.62   42.68
   5   6  11   76.42   42.68
   5   6  11  273.11   53.09
   5   6  12   69.86   23.87
   5   6  12  242.92   48.37
   5   6  13   80.40   29.10
   5   6  13   77.67   31.56
   5   6  13  133.25   51.79
   5   6  14  113.75   34.41
   5   6  14  131.82   66.27
   5   6  14  179.74   37.58
   5   6  14  108.03   53.89
   5   7  -4  358.61   61.62
   5   7  -3  183.28   55.63
   5   7  -3  214.42   63.71
   5   7  -2  162.75   48.89
   5   7  -2  185.23   60.05
   5   7  -1   26.26   42.41
   5   7  -1   53.35   53.93
   5   7   0   36.10   47.62
   5   7   1   71.27   19.78
   5   7   2  121.80   36.22
   5   7   3  211.17   36.64
   5   7   4  136.56   34.97
   5   7   5   56.01   34.43
   5   7   6  213.54   35.36
   5   7   7  461.61   40.16
   5   7   8  416.84   41.97
   5   7   9  191.31   41.92
   5   7  10  123.51   44.50
   5   7  12  404.98   52.75
   5   7  13  555.03   58.15
   5   8  -3  263.85   60.32
   5   8  -2  406.64   57.84
   5   8  -2  397.42   66.99
   5   8  -1  218.01   49.16
   5   8  -1  251.01   60.17
   5   8   0  402.60   46.46
   5   8   1  403.36   43.37
   5   8   2  717.96   31.32
   5   8   3 1504.00   59.23
   5   8   4  220.66   39.66
   5   8   4  263.87   39.88
   5   8   5  167.97   37.58
   5   8   5  148.49   39.53
   5   8   6  502.44   41.37
   5   8   6  417.37   44.61
   5   8   7 1033.87   47.55
   5   8   7 1003.43   51.89
   5   8   8  535.21   45.86
   5   8   9  487.20   47.32
   5   8  10  171.07   45.99
   5   8  11  238.94   48.73
   5   8  11  226.14   52.94
   5   9  -2  567.13   67.85
   5   9  -2  627.87   74.61
   5   9  -1  420.45   56.34
   5   9  -1  484.13   61.17
   5   9  -1  437.22   68.85
   5   9   0  229.59   50.21
   5   9   1  655.49   50.03
   5   9   2  386.19   45.26
   5   9   2  252.80   22.33
   5   9   2  343.74   24.47
   5   9   3  437.29   33.02
   5   9   4  260.23   44.45
   5   9   4  186.74   42.37
   5   9   4  224.73   34.28
   5   9   5  165.11   40.51
   5   9   5  112.62   41.32
   5   9   6  174.40   40.48
   5   9   6  157.35   42.60
   5   9   7  112.43   39.79
   5   9   7   30.32   42.87
   5   9   8   30.21   41.44
   5   9   9   62.04   38.25
   5   9   9   80.08   43.67
   5   9  10  247.42   40.67
   5   9  10  219.00   47.38
   5   9  10  195.80   52.50
   5  10   0   -0.60   59.03
   5  10   1   65.67   44.99
   5  10   2  131.06   47.06
   5  10   2  107.74   43.98
   5  10   3  117.99   46.49
   5  10   3   65.30   26.92
   5  10   4  152.32   48.63
   5  10   4   48.57   33.85
   5  10   5   64.37   45.29
   5  10   5   64.12   45.82
   5  10   5   84.44   37.85
   5  10   6    1.67   44.40
   5  10   6   -3.08   45.21
   5  10   6   31.92   39.93
   5  10   7   69.54   44.59
   5  10   7   15.51   46.59
   5  10   7   58.04   43.98
   5  10   8  171.62   48.07
   5  10   9  357.49   46.07
   5  10  10  116.19   42.81
   5  10  11   49.50   43.08
   5  11   1   49.47   59.80
   5  11   1  116.45   49.66
   5  11   2   73.08   49.47
   5  11   3  158.09   15.57
   5  11   3  265.21   51.57
   5  11   4  494.34   54.92
   5  11   4  449.00   34.79
   5  11   4  511.20   56.72
   5  11   5  307.57   39.76
   5  11   5  219.38   52.60
   5  11   6  156.33   41.95
   5  11   6  160.67   49.83
   5  11   7  275.81   47.20
   5  11   7  251.79   51.65
   5  11   8  444.06   51.95
   5  11   9  349.01   51.58
   5  11   9  347.96   52.13
   5  11  10  385.41   50.96
   5  11  11  162.40   47.58
   5  11  12  135.25   46.63
   5  12   4  204.56   57.57
   5  12   4  146.86   24.23
   5  12   5  140.84   54.89
   5  12   5  164.01   34.96
   5  12   6  231.24   55.79
   5  12   6  225.66   42.12
   5  12   7  222.25   56.21
   5  12   7  257.34   46.98
   5  12   8  205.86   49.58
   5  12   9   27.73   51.02
   5  12   9  113.21   51.41
   5  12  10   30.10   49.85
   5  12  11   34.54   49.85
   6 -11  -7  175.70   66.11
   6 -11  -7  112.11   54.62
   6 -11  -6  197.38   61.97
   6 -11  -6  213.93   60.09
   6 -11  -4   69.08   54.97
   6 -11  -3  -12.44   52.10
   6 -11  -2   28.14   52.61
   6 -11  -1  107.24   51.03
   6 -11   0   61.48   49.99
   6 -10  -8   28.38   55.32
   6 -10  -8   16.61   69.04
   6 -10  -8   36.20   42.97
   6 -10  -7   11.93   52.66
   6 -10  -7  -23.99   62.87
   6 -10  -7   14.24   45.68
   6 -10  -6   48.90   53.55
   6 -10  -6   27.18   50.89
   6 -10  -6   27.31   57.51
   6 -10  -5  -29.76   53.77
   6 -10  -5   33.25   58.49
   6 -10  -4  -10.89   56.76
   6 -10  -3    1.12   48.63
   6 -10  -2   89.83   47.69
   6 -10  -1  214.10   49.25
   6 -10   0  145.13   49.33
   6 -10   1   78.93   45.25
   6 -10   2  482.99   51.41
   6  -9  -9   50.65   56.06
   6  -9  -9   59.34   34.91
   6  -9  -8   80.58   52.68
   6  -9  -8   67.11   65.76
   6  -9  -8   14.22   64.92
   6  -9  -8  107.25   52.83
   6  -9  -8   56.80   39.71
   6  -9  -7  159.49   51.82
   6  -9  -7  190.26   61.91
   6  -9  -7  125.17   53.03
   6  -9  -7  203.46   60.24
   6  -9  -7  164.55   42.11
   6  -9  -6  247.32   49.80
   6  -9  -6  204.19   53.99
   6  -9  -6  113.72   46.74
   6  -9  -6  224.19   55.55
   6  -9  -5  200.17   51.23
   6  -9  -5  274.55   51.08
   6  -9  -4  190.48   52.95
   6  -9  -4  228.64   48.32
   6  -9  -2  187.37   55.90
   6  -9  -1  393.78   47.18
   6  -9  -1  417.73   61.77
   6  -9  -1  577.44   74.31
   6  -9   0  351.32   48.68
   6  -9   1  137.66   47.03
   6  -9   2  119.11   45.11
   6  -9   3  152.21   43.77
   6  -9   4  348.95   48.47
   6  -8  -9  165.13   55.40
   6  -8  -8  111.20   50.77
   6  -8  -8  155.20   65.94
   6  -8  -8  167.09   50.50
   6  -8  -8  143.88   36.21
   6  -8  -7  202.35   48.61
   6  -8  -7  180.77   59.57
   6  -8  -7  173.04   38.59
   6  -8  -7  178.41   60.39
   6  -8  -7  239.00   49.49
   6  -8  -6  376.09   54.30
   6  -8  -6  454.75   55.23
   6  -8  -6  279.33   43.79
   6  -8  -6  383.72   49.62
   6  -8  -5  131.30   45.23
   6  -8  -5  166.81   46.78
   6  -8  -5  125.94   42.33
   6  -8  -4  198.57   48.00
   6  -8  -4  227.98   44.75
   6  -8  -3  112.68   42.08
   6  -8  -3  200.88   55.84
   6  -8  -2   89.19   40.63
   6  -8  -2  120.11   49.91
   6  -8  -2  148.43   57.58
   6  -8  -1   39.22   50.23
   6  -8  -1  134.49   61.04
   6  -8   0  132.68   53.59
   6  -8   0  114.59   66.98
   6  -8   1   69.06   40.27
   6  -8   1   55.11   53.03
   6  -8   1   81.09   66.26
   6  -8   2   11.76   42.47
   6  -8   3   23.58   42.97
   6  -8   4    8.90   42.93
   6  -8   5   62.75   43.31
   6  -7 -10   91.21   58.88
   6  -7  -9   51.34   53.96
   6  -7  -9   84.71   51.21
   6  -7  -8   47.34   49.18
   6  -7  -8   69.23   27.89
   6  -7  -8   50.65   49.21
   6  -7  -7  105.71   45.81
   6  -7  -7   89.23   33.12
   6  -7  -6  -34.99   42.31
   6  -7  -6    8.72   53.57
   6  -7  -6   57.11   35.82
   6  -7  -6   56.14   49.34
   6  -7  -5   19.89   38.63
   6  -7  -5   31.97   37.18
   6  -7  -5   89.25   45.97
   6  -7  -4   26.33   40.03
   6  -7  -3  117.47   38.22
   6  -7  -3   82.06   48.21
   6  -7  -2   35.75   38.02
   6  -7  -2  -45.52   44.83
   6  -7  -2   42.36   50.28
   6  -7  -1   33.57   36.80
   6  -7  -1   32.52   46.63
   6  -7  -1   43.46   55.79
   6  -7   0   85.26   49.29
   6  -7   0  -52.98   60.71
   6  -7   1   42.44   50.35
   6  -7   1   41.95   59.32
   6  -7   2  104.05   40.07
   6  -7   2   97.01   52.33
   6  -7   2  229.94   62.07
   6  -7   3   65.97   40.37
   6  -7   3   49.31   52.63
   6  -7   3  199.04   61.54
   6  -7   4  150.30   42.18
   6  -7   5  502.19   47.04
   6  -7   6  310.30   44.71
   6  -7   7   95.11   44.35
   6  -6 -10   58.17   57.80
   6  -6  -9   89.51   53.35
   6  -6  -8   80.18   49.37
   6  -6  -7   35.66   27.34
   6  -6  -7   38.10   43.98
   6  -6  -6  153.52   41.64
   6  -6  -6  102.32   50.29
   6  -6  -6  112.67   32.02
   6  -6  -5  321.99   40.76
   6  -6  -5  314.78   45.58
   6  -6  -5  198.20   35.70
   6  -6  -5  268.64   46.19
   6  -6  -5  307.06   44.72
   6  -6  -4  572.89   42.03
   6  -6  -3  211.64   36.65
   6  -6  -3  203.02   46.47
   6  -6  -2   75.22   35.36
   6  -6  -2   91.35   38.56
   6  -6  -2   93.85   47.85
   6  -6  -1  276.29   37.36
   6  -6  -1  280.17   43.85
   6  -6  -1  303.64   51.05
   6  -6   0  845.16   44.69
   6  -6   0  800.71   53.74
   6  -6   0  972.97   63.03
   6  -6   1  523.38   41.92
   6  -6   1  560.01   51.48
   6  -6   1  601.08   62.22
   6  -6   2  151.85   48.36
   6  -6   2  191.99   56.04
   6  -6   3   29.97   48.68
   6  -6   3  203.76   56.37
   6  -6   4  199.90   40.11
   6  -6   4  227.81   52.76
   6  -6   5  823.00   63.19
   6  -6   5  743.27   48.57
   6  -6   6  346.06   47.55
   6  -6   7   11.80   48.06
   6  -6   8  125.35   50.48
   6  -5 -10  241.58   59.58
   6  -5  -9  419.56   58.29
   6  -5  -8  244.32   51.00
   6  -5  -7  160.69   46.44
   6  -5  -6  129.42   41.95
   6  -5  -6  157.59   28.23
   6  -5  -6  189.08   42.55
   6  -5  -5  296.75   41.89
   6  -5  -5  303.10   39.21
   6  -5  -5  278.76   33.29
   6  -5  -5  215.12   45.33
   6  -5  -4  304.85   36.38
   6  -5  -4  347.83   40.91
   6  -5  -3  322.27   35.33
   6  -5  -2  300.49   33.48
   6  -5  -2  247.33   35.38
   6  -5  -2  315.04   43.91
   6  -5  -1  300.74   35.53
   6  -5  -1  324.93   38.46
   6  -5  -1  298.28   46.57
   6  -5   0   63.07   32.39
   6  -5   0   78.15   36.35
   6  -5   0   78.39   43.80
   6  -5   1  120.26   33.34
   6  -5   1   99.67   39.42
   6  -5   1  105.48   48.75
   6  -5   2  126.91   32.86
   6  -5   2   64.91   41.16
   6  -5   2  137.62   50.60
   6  -5   3   33.44   36.34
   6  -5   3   60.42   44.13
   6  -5   3  111.24   50.77
   6  -5   4   68.41   45.35
   6  -5   4  122.63   41.75
   6  -5   5    6.83   42.62
   6  -5   5   93.11   47.73
   6  -5   5   -2.40   48.44
   6  -5   6  104.08   44.51
   6  -5   6   89.27   51.63
   6  -5   6   34.79   51.17
   6  -5   7   66.09   45.78
   6  -5   8  179.36   48.63
   6  -5   8  204.33   54.17
   6  -5   9  142.47   49.05
   6  -5   9  182.87   57.76
   6  -4  -9   42.33   54.48
   6  -4  -8   18.85   49.97
   6  -4  -7   24.47   44.20
   6  -4  -7   39.86   45.07
   6  -4  -6   47.39   40.20
   6  -4  -6   41.41   41.35
   6  -4  -5   51.21   37.41
   6  -4  -5   82.33   27.70
   6  -4  -5   47.09   37.31
   6  -4  -4   36.65   32.00
   6  -4  -4    1.73   34.60
   6  -4  -4   20.35   36.30
   6  -4  -3   15.45   28.83
   6  -4  -2   33.99   29.50
   6  -4  -2  -21.68   26.53
   6  -4  -1    9.89   27.66
   6  -4  -1   44.75   31.94
   6  -4  -1   74.71   37.76
   6  -4   0   46.24   30.34
   6  -4   0   49.98   32.51
   6  -4   0   83.91   38.05
   6  -4   1  400.53   35.07
   6  -4   1  393.02   39.69
   6  -4   1  468.73   47.04
   6  -4   2  127.94   32.52
   6  -4   2  146.35   37.78
   6  -4   2  135.03   45.91
   6  -4   3  134.07   35.46
   6  -4   3  202.29   49.56
   6  -4   3  228.85   35.67
   6  -4   3  157.27   41.08
   6  -4   4  153.76   38.37
   6  -4   4  192.33   40.46
   6  -4   4  187.89   43.73
   6  -4   4  294.91   50.43
   6  -4   5  492.62   44.20
   6  -4   5  353.87   48.85
   6  -4   5  382.65   48.37
   6  -4   6  726.62   52.57
   6  -4   6  650.81   58.43
   6  -4   6  741.32   56.89
   6  -4   7  426.78   46.70
   6  -4   7  360.92   56.27
   6  -4   7  423.57   50.81
   6  -4   7  409.27   54.83
   6  -4   8  188.54   47.56
   6  -4   8  186.16   50.42
   6  -4   9  331.55   47.34
   6  -4   9  265.34   56.53
   6  -4  10  463.77   62.93
   6  -3 -10   25.69   57.72
   6  -3  -8  249.57   51.72
   6  -3  -7  108.50   45.83
   6  -3  -7  133.97   46.39
   6  -3  -6   79.42   40.02
   6  -3  -6   54.35   41.00
   6  -3  -5  176.05   37.77
   6  -3  -5  106.63   40.69
   6  -3  -4  336.64   38.68
   6  -3  -4  325.57   37.19
   6  -3  -3  297.07   33.34
   6  -3  -3  333.20   37.87
   6  -3  -2  231.67   31.32
   6  -3  -2  273.55   29.66
   6  -3  -1  355.11   31.68
   6  -3  -1  366.65   38.87
   6  -3   0  358.74   28.93
   6  -3   0  372.58   35.17
   6  -3   0  359.05   38.47
   6  -3   1  907.06   39.39
   6  -3   1  903.98   44.12
   6  -3   1  940.88   48.43
   6  -3   2 1107.06   45.17
   6  -3   2 1189.86   49.48
   6  -3   2 1065.43   53.47
   6  -3   3  939.78   44.80
   6  -3   3 1037.29   55.63
   6  -3   3 1006.62   43.03
   6  -3   3  983.27   48.73
   6  -3   4  789.05   42.21
   6  -3   4  801.93   41.52
   6  -3   4  746.35   46.56
   6  -3   4  951.40   54.43
   6  -3   4  757.96   47.81
   6  -3   5  549.45   40.99
   6  -3   5  579.70   42.90
   6  -3   5  573.35   46.32
   6  -3   5  456.30   45.01
   6  -3   5  619.18   51.65
   6  -3   6  767.79   50.46
   6  -3   6  862.71   53.79
   6  -3   6  697.11   53.79
   6  -3   7  750.17   53.44
   6  -3   7  813.48   56.39
   6  -3   7  640.57   59.36
   6  -3   8  265.23   54.95
   6  -3   8  363.61   51.42
   6  -3   9  258.23   52.49
   6  -3   9  296.07   56.17
   6  -3  10  700.82   63.59
   6  -2  -9  252.20   57.58
   6  -2  -7  376.83   53.08
   6  -2  -6  260.44   42.95
   6  -2  -6  302.09   45.80
   6  -2  -5  434.61   44.09
   6  -2  -5  490.94   41.77
   6  -2  -4  435.72   37.03
   6  -2  -4  389.84   39.74
   6  -2  -3  518.83   38.28
   6  -2  -3  503.51   36.58
   6  -2  -2  355.01   31.33
   6  -2  -2  342.93   32.00
   6  -2  -2  358.08   36.18
   6  -2  -1  338.83   30.41
   6  -2   0  476.98   34.63
   6  -2   0  478.94   37.77
   6  -2   1  612.81   36.63
   6  -2   1  551.45   39.90
   6  -2   2  479.64   34.33
   6  -2   2  535.55   29.20
   6  -2   2  489.60   41.04
   6  -2   2  505.34   36.32
   6  -2   3  472.72   35.51
   6  -2   3  447.43   30.31
   6  -2   3  491.34   33.14
   6  -2   3  424.18   44.05
   6  -2   3  487.94   37.21
   6  -2   4  420.54   33.72
   6  -2   4  369.07   32.03
   6  -2   4  477.52   39.05
   6  -2   4  417.72   36.57
   6  -2   4  460.99   45.26
   6  -2   5  575.94   40.08
   6  -2   5  648.80   44.80
   6  -2   5  599.47   47.52
   6  -2   5  599.92   45.11
   6  -2   6  154.22   37.99
   6  -2   6   97.77   40.67
   6  -2   6  191.97   41.09
   6  -2   7   92.17   40.98
   6  -2   7   68.11   43.22
   6  -2   7  115.97   46.15
   6  -2   8  182.58   46.49
   6  -2   8  157.81   48.21
   6  -2   9  226.73   50.38
   6  -2   9  262.66   54.51
   6  -2   9  245.75   52.91
   6  -2  10   79.03   52.02
   6  -2  10  142.77   53.30
   6  -2  11   99.79   55.35
   6  -2  11   84.79   54.70
   6  -1  -9   99.35   53.99
   6  -1  -8  207.84   50.93
   6  -1  -6   68.01   46.67
   6  -1  -5  275.06   39.71
   6  -1  -5  256.15   44.56
   6  -1  -4   70.43   33.13
   6  -1  -4   52.42   37.44
   6  -1  -3   49.62   31.16
   6  -1  -3   -8.32   33.77
   6  -1  -2   89.52   29.63
   6  -1  -2   73.80   32.11
   6  -1  -1   71.76   28.11
   6  -1  -1   28.63   27.93
   6  -1  -1   60.36   31.74
   6  -1   0   22.14   28.22
   6  -1   0   42.84   25.03
   6  -1   1   22.51   27.97
   6  -1   1   22.25   32.79
   6  -1   2  324.77   31.20
   6  -1   2  274.82   21.77
   6  -1   2  321.88   37.09
   6  -1   3   83.10   26.41
   6  -1   3  206.29   26.38
   6  -1   3  195.46   31.44
   6  -1   3  223.45   36.68
   6  -1   4   83.45   26.57
   6  -1   4   86.22   28.89
   6  -1   4  139.35   31.65
   6  -1   4   60.55   38.19
   6  -1   5  109.04   34.55
   6  -1   5   77.35   31.14
   6  -1   5   96.98   32.81
   6  -1   5  120.72   40.79
   6  -1   6  300.27   39.22
   6  -1   6  338.80   40.75
   6  -1   6  429.21   44.38
   6  -1   6  350.72   40.80
   6  -1   7  965.80   51.58
   6  -1   7  972.03   51.31
   6  -1   7  946.43   52.82
   6  -1   8  491.77   47.63
   6  -1   8  524.01   50.07
   6  -1   9  320.21   48.23
   6  -1   9  371.02   50.28
   6  -1  10  483.34   54.28
   6  -1  10  489.24   52.91
   6  -1  11  536.07   59.96
   6  -1  11  654.57   57.48
   6  -1  12  253.65   59.64
   6  -1  12  271.19   54.92
   6   0  -8  116.62   49.07
   6   0  -7   95.47   46.47
   6   0  -5  113.08   45.23
   6   0  -4  102.11   33.22
   6   0  -4  137.27   40.11
   6   0  -3  478.81   41.40
   6   0  -3  421.16   36.34
   6   0  -2 1025.73   41.76
   6   0  -2 1093.36   46.96
   6   0  -1  715.44   39.61
   6   0  -1  775.75   36.49
   6   0   0  901.37   43.45
   6   0   0  924.17   37.96
   6   0   1  785.29   36.67
   6   0   1  736.45   36.58
   6   0   2  326.26   29.72
   6   0   2  226.15   18.68
   6   0   2  282.36   34.26
   6   0   3 1157.30   43.66
   6   0   3 1067.57   37.00
   6   0   3 1159.84   45.45
   6   0   4 1652.10   50.82
   6   0   4 1602.45   53.05
   6   0   4 1681.82   55.47
   6   0   5 1962.92   59.59
   6   0   5 1943.66   60.38
   6   0   5 1960.30   64.28
   6   0   6 1059.90   48.24
   6   0   6 1087.66   47.28
   6   0   6 1102.43   50.32
   6   0   7  683.82   45.29
   6   0   7  687.63   43.39
   6   0   8  651.52   47.87
   6   0   8  668.11   45.17
   6   0   9 1297.62   63.87
   6   0  10 1327.43   67.30
   6   0  10 1341.21   62.42
   6   0  11  687.80   53.31
   6   0  12  150.06   48.74
   6   1  -7  386.55   49.19
   6   1  -6  398.23   46.09
   6   1  -5  698.52   44.62
   6   1  -4  883.04   53.37
   6   1  -3  524.01   44.80
   6   1  -3  498.14   33.92
   6   1  -2  985.63   47.29
   6   1  -2 1008.59   41.10
   6   1  -1 1816.29   54.20
   6   1  -1 1940.36   60.79
   6   1   0 1859.08   58.81
   6   1   0 1860.83   52.78
   6   1   1 1692.54   54.74
   6   1   1 1837.87   53.19
   6   1   2  656.86   34.57
   6   1   3   75.34   22.03
   6   1   3  105.69   20.18
   6   1   3   57.44   27.98
   6   1   3   85.56   21.94
   6   1   3  125.25   29.85
   6   1   4 1393.64   43.36
   6   1   4 1425.80   47.05
   6   1   4 1129.58   42.71
   6   1   4 1483.57   49.35
   6   1   5 1192.33   43.87
   6   1   5 1171.75   44.19
   6   1   5  952.07   41.95
   6   1   5 1211.77   45.62
   6   1   6  688.33   38.84
   6   1   6  645.63   38.51
   6   1   6  695.20   42.59
   6   1   7  156.32   33.65
   6   1   7  178.55   35.11
   6   1   8  155.53   35.44
   6   1   8  134.25   39.32
   6   1   9  108.56   43.34
   6   1  10  176.54   42.27
   6   1  10  168.23   47.46
   6   1  11   62.55   44.37
   6   1  12   49.03   43.52
   6   1  13  100.31   46.18
   6   1  13   47.92   77.56
   6   2  -6  217.78   43.25
   6   2  -5  353.62   40.18
   6   2  -4  454.15   39.24
   6   2  -4  609.32   38.85
   6   2  -3  373.76   47.11
   6   2  -3  202.12   30.63
   6   2  -2  193.14   42.06
   6   2  -2    4.69   24.13
   6   2  -1  188.85   28.41
   6   2  -1  256.39   38.25
   6   2   0  704.75   35.95
   6   2   0  786.65   41.76
   6   2   1  138.66   33.04
   6   2   1  118.51   30.76
   6   2   2  157.71   31.23
   6   2   2  234.25   29.26
   6   2   4  218.95   27.59
   6   2   4  248.80   25.12
   6   2   5   78.80   32.16
   6   2   5   98.44   25.81
   6   2   5  111.36   28.53
   6   2   5  110.19   30.96
   6   2   6  159.91   29.50
   6   2   6  128.78   41.63
   6   2   6  106.01   33.88
   6   2   7  360.43   37.14
   6   2   7  384.39   35.80
   6   2   7  339.46   41.54
   6   2   8  214.21   38.18
   6   2   8  226.50   35.60
   6   2   8  195.61   41.32
   6   2   9  287.66   42.50
   6   2   9  262.71   52.80
   6   2  10  456.71   50.36
   6   2  10  372.57   43.56
   6   2  10  408.55   59.35
   6   2  11  529.88   54.96
   6   2  11  502.96   47.08
   6   2  11  571.79   67.49
   6   2  12 1181.28   81.82
   6   2  13  314.35   79.21
   6   3  -6   76.74   47.05
   6   3  -5   81.38   36.14
   6   3  -5   18.22   41.51
   6   3  -4   97.69   33.92
   6   3  -4   14.44   37.71
   6   3  -3  219.77   30.99
   6   3  -3  116.48   34.16
   6   3  -2  145.34   31.40
   6   3  -1  542.19   45.50
   6   3   0  603.34   42.09
   6   3   0  572.07   31.04
   6   3   1 1313.84   47.55
   6   3   1 1347.83   44.58
   6   3   1 1218.63   50.03
   6   3   2  703.44   33.89
   6   3   2  627.06   36.24
   6   3   3  367.48   32.00
   6   3   4 1668.45   49.89
   6   3   6 2236.99   61.74
   6   3   6 2059.80   62.12
   6   3   6 1997.74   59.31
   6   3   7  836.14   43.52
   6   3   7  900.51   44.65
   6   3   7  805.24   42.10
   6   3   8  528.19   45.44
   6   3   8  574.19   41.00
   6   3   8  603.62   37.43
   6   3   8  532.95   45.49
   6   3   9  302.20   41.06
   6   3   9  256.89   47.88
   6   3   9  265.58   47.58
   6   3   9  321.55   39.59
   6   3  10  997.60   62.65
   6   3  10  924.31   56.08
   6   3  10 1094.43   51.83
   6   3  10  983.97   62.58
   6   3  11  661.03   66.15
   6   3  11  704.00   56.37
   6   3  11  671.22   66.92
   6   3  12  542.36   70.26
   6   3  13  224.46   72.02
   6   4  -6  351.42   53.97
   6   4  -5  543.39   54.29
   6   4  -4  618.26   51.26
   6   4  -4  705.43   39.97
   6   4  -3 1076.04   52.81
   6   4  -3  946.39   40.56
   6   4  -2  444.58   29.53
   6   4  -2  438.94   39.21
   6   4  -2  439.96   50.98
   6   4  -1  668.11   49.29
   6   4  -1  678.07   32.68
   6   4   0 1464.05   55.73
   6   4   1 1404.31   52.03
   6   4   1 1437.59   46.00
   6   4   1 1474.81   53.28
   6   4   2 1191.08   48.89
   6   4   2 1209.32   48.40
   6   4   2 1280.70   43.83
   6   4   3  581.82   38.68
   6   4   3  546.86   35.67
   6   4   4  249.80   35.38
   6   4   5  810.72   41.68
   6   4   5  820.13   38.51
   6   4   6 1407.25   50.29
   6   4   7  330.40   35.77
   6   4   7  316.93   36.46
   6   4   8   27.96   33.86
   6   4   8  -10.97   38.50
   6   4   8  -22.30   34.65
   6   4   8    1.49   25.02
   6   4   8  -14.18   35.98
   6   4   9    9.60   35.03
   6   4   9  -28.50   42.13
   6   4   9  -12.98   37.50
   6   4   9   15.27   28.61
   6   4   9  -49.51   42.26
   6   4  10    1.06   47.21
   6   4  10  -67.99   42.39
   6   4  10  -37.81   35.29
   6   4  10   -5.65   47.83
   6   4  11   98.85   42.35
   6   4  11  -21.68   55.54
   6   4  11   76.42   40.13
   6   4  11  -15.91   56.79
   6   4  11    1.01   46.35
   6   4  12    0.47   62.75
   6   4  12  181.52   44.07
   6   4  13   74.69   67.91
   6   4  14  217.67   74.83
   6   4  14  105.84   49.38
   6   5  -5  254.65   53.05
   6   5  -4  321.74   53.92
   6   5  -4  400.00   62.76
   6   5  -3  541.45   48.90
   6   5  -3  424.03   58.41
   6   5  -3  441.81   31.51
   6   5  -2   62.52   25.49
   6   5  -2   47.75   39.45
   6   5  -2   87.28   49.64
   6   5  -1   28.92   23.59
   6   5  -1   74.05   35.86
   6   5  -1   72.60   45.82
   6   5   0   30.88   24.23
   6   5   0    4.94   28.61
   6   5   0   20.40   40.99
   6   5   1   83.25   38.35
   6   5   2    0.78   36.48
   6   5   3   80.74   36.64
   6   5   4   84.64   36.63
   6   5   4   82.55   31.55
   6   5   5  201.48   39.38
   6   5   5  187.05   30.97
   6   5   6  313.71   40.19
   6   5   6  285.90   33.36
   6   5   6  260.84   25.63
   6   5   7  513.98   38.48
   6   5   7  441.92   25.19
   6   5   8  738.84   41.47
   6   5   8  680.33   44.29
   6   5   9  206.05   39.13
   6   5   9  152.28   43.86
   6   5  10  404.29   49.36
   6   5  10  376.17   27.07
   6   5  10  364.24   45.72
   6   5  10  402.58   49.37
   6   5  11 1283.18   58.29
   6   5  11 1098.12   41.20
   6   5  11 1166.76   65.42
   6   5  11 1180.97   65.55
   6   5  11 1064.25   61.38
   6   5  12  958.67   55.57
   6   5  12  631.25   43.16
   6   5  12  848.76   65.61
   6   5  13  490.11   53.40
   6   5  13  434.22   42.88
   6   5  13  417.55   43.96
   6   5  13  556.13   69.16
   6   5  14  173.17   43.75
   6   5  14  299.11   70.35
   6   5  14  285.05   48.26
   6   6  -5    6.68   57.56
   6   6  -4   88.25   51.34
   6   6  -3  218.89   60.09
   6   6  -3  145.06   49.74
   6   6  -2  240.06   57.04
   6   6  -2  228.16   24.90
   6   6  -2  244.29   47.76
   6   6  -1  546.41   46.56
   6   6  -1  479.79   45.01
   6   6  -1  476.22   57.33
   6   6  -1  435.09   25.64
   6   6   0  685.78   44.16
   6   6   0  675.66   53.76
   6   6   0  654.93   46.02
   6   6   0  625.44   29.28
   6   6   1  924.04   35.88
   6   6   1  971.07   43.65
   6   6   1  842.82   52.93
   6   6   2 1566.87   61.23
   6   6   2 1630.02   50.36
   6   6   3 1412.23   52.63
   6   6   3 1254.10   56.67
   6   6   4  574.21   40.39
   6   6   4  543.35   44.94
   6   6   5  680.66   42.59
   6   6   5  644.56   45.67
   6   6   6 1569.05   57.22
   6   6   6 1560.30   58.47
   6   6   7 1408.49   55.22
   6   6   8 1274.96   54.96
   6   6   8 1170.35   52.67
   6   6   9  874.18   50.95
   6   6   9  780.23   48.96
   6   6  10  383.33   46.62
   6   6  11  617.80   53.79
   6   6  11  688.21   57.01
   6   6  12  601.47   55.04
   6   6  13  357.32   53.49
   6   6  13  231.68   27.30
   6   6  13  249.46   28.93
   6   6  14   74.77   32.47
   6   6  14  104.60   32.26
   6   6  14  159.55   65.57
   6   7  -4  349.90   59.93
   6   7  -3  867.50   64.24
   6   7  -3  881.82   73.21
   6   7  -2 1216.05   67.15
   6   7  -2 1305.98   76.13
   6   7  -1  737.46   53.27
   6   7  -1  829.97   65.60
   6   7  -1  759.64   57.37
   6   7   0  653.17   48.12
   6   7   0  687.88   59.07
   6   7   0  535.16   51.60
   6   7   0  517.62   24.37
   6   7   1  565.74   28.74
   6   7   1  629.59   43.70
   6   7   1  592.13   53.02
   6   7   2 1332.17   60.85
   6   7   2 1211.45   44.01
   6   7   3 1073.87   51.67
   6   7   3 1068.98   55.68
   6   7   4  448.91   41.86
   6   7   5  183.02   38.02
   6   7   6  337.60   41.37
   6   7   7  358.86   39.99
   6   7   8   88.83   38.07
   6   7   9   47.59   41.32
   6   7   9   87.54   43.77
   6   7  10   95.25   44.01
   6   7  10   61.09   44.15
   6   7  11   92.61   47.48
   6   7  11  104.06   39.27
   6   8  -2  193.05   56.40
   6   8  -2  209.19   68.41
   6   8  -1  121.25   52.59
   6   8  -1   99.95   49.64
   6   8  -1  154.87   64.24
   6   8   0   14.37   51.50
   6   8   0   48.12   45.18
   6   8   0  140.02   59.20
   6   8   1   64.36   20.68
   6   8   1  138.56   54.80
   6   8   1  152.05   48.70
   6   8   1  202.89   42.47
   6   8   2   91.77   50.42
   6   8   2   59.74   40.06
   6   8   2  -48.05   29.36
   6   8   4   32.13   39.98
   6   8   5   65.83   40.82
   6   8   6  278.24   44.43
   6   8   7  333.31   44.24
   6   8   8  311.63   44.38
   6   8   9  105.69   41.85
   6   8  10  140.02   46.14
   6   8  11  234.15   50.26
   6   8  12  363.50   48.64
   6   9  -1  251.63   71.96
   6   9  -1  242.78   61.24
   6   9   0  120.35   64.22
   6   9   0   94.49   56.82
   6   9   0  197.19   50.96
   6   9   1  210.02   60.18
   6   9   1  202.22   46.80
   6   9   1  126.36   52.41
   6   9   2  620.85   51.87
   6   9   2  485.12   26.59
   6   9   2  565.61   47.81
   6   9   2  569.12   56.22
   6   9   3  812.63   54.93
   6   9   3  677.17   37.29
   6   9   5  413.02   48.66
   6   9   6  657.60   51.74
   6   9   7  885.37   56.33
   6   9   8  657.38   52.03
   6   9  13  260.45   49.91
   6  10   1  242.33   59.74
   6  10   1  238.30   68.69
   6  10   2  287.06   50.43
   6  10   2  269.78   55.94
   6  10   2  245.70   49.11
   6  10   3  354.16   50.92
   6  10   3  233.06   30.14
   6  10   3  314.90   30.75
   6  10   3  332.63   52.10
   6  10   4  457.66   53.99
   6  10   4  387.94   38.34
   6  10   5  423.04   41.98
   6  10   6  301.42   49.46
   6  10   9   95.66   52.27
   6  11   2   25.67   50.49
   6  11   2   39.94   59.02
   6  11   3   -3.05   15.17
   6  11   3   67.37   55.81
   6  11   4  111.22   51.50
   6  11   4  -30.41   31.58
   6  11   5   -6.62   37.24
   6  11   6   51.36   42.50
   6  11   7   30.55   44.43
   6  11   8   93.30   47.76
   6  11   9  127.97   52.12
   6  12   5  267.71   56.75
   6  12   5  177.46   35.92
   6  12   6  165.08   41.07
   6  12   7  307.46   48.09
   6  12   8  282.63   52.09
   6  12   9  321.87   55.25
   7 -11  -4  120.14   57.46
   7 -11  -3   71.03   58.60
   7 -11  -2  212.48   59.31
   7 -10  -7  128.73   58.45
   7 -10  -7   20.30   66.84
   7 -10  -7   82.45   48.08
   7 -10  -6  234.73   56.82
   7 -10  -6  179.81   62.25
   7 -10  -6  104.50   50.49
   7 -10  -5   99.06   53.46
   7 -10  -2   48.84   51.36
   7 -10  -1  200.44   51.50
   7 -10   0  201.83   50.36
   7 -10   1   44.33   49.44
   7  -9  -8   -2.03   55.59
   7  -9  -8   -0.45   65.99
   7  -9  -8   43.46   39.52
   7  -9  -7   67.93   54.15
   7  -9  -7  -15.52   63.43
   7  -9  -7    5.31   63.09
   7  -9  -7   25.15   43.32
   7  -9  -6    0.44   51.54
   7  -9  -6  -14.71   56.49
   7  -9  -6   37.47   58.93
   7  -9  -6   34.71   44.96
   7  -9  -5   21.11   50.30
   7  -9  -5   42.56   56.73
   7  -9  -5   32.17   46.86
   7  -9  -4   19.09   49.03
   7  -9  -4   -3.99   48.89
   7  -9  -1  181.68   50.29
   7  -9   0   73.22   48.18
   7  -9   1   52.13   46.17
   7  -9   2   36.98   46.14
   7  -9   3  119.63   47.64
   7  -8  -8  108.62   36.34
   7  -8  -8  109.16   55.44
   7  -8  -7  153.22   52.10
   7  -8  -7  108.91   61.94
   7  -8  -7   87.92   39.82
   7  -8  -6  216.83   50.62
   7  -8  -6  194.54   57.96
   7  -8  -6  177.44   55.22
   7  -8  -6  155.17   43.84
   7  -8  -5  278.71   50.05
   7  -8  -5  354.91   54.87
   7  -8  -5  237.10   47.79
   7  -8  -5  368.10   53.66
   7  -8  -4  131.45   47.01
   7  -8  -4  178.14   47.48
   7  -8  -3  123.52   46.76
   7  -8  -3  176.36   58.76
   7  -8  -2  201.98   45.30
   7  -8  -2  257.81   62.42
   7  -8  -1  285.53   56.21
   7  -8  -1  314.45   65.89
   7  -8   0  400.27   59.84
   7  -8   0  585.74   72.47
   7  -8   1  463.77   49.32
   7  -8   2  135.97   49.39
   7  -8   3  172.20   47.23
   7  -8   4  330.38   51.59
   7  -8   5  416.47   52.61
   7  -7  -9  254.61   59.69
   7  -7  -8  146.36   55.17
   7  -7  -7   59.92   35.85
   7  -7  -7   25.90   49.05
   7  -7  -6  116.88   47.76
   7  -7  -6   68.02   53.47
   7  -7  -6  129.66   38.16
   7  -7  -5  452.36   48.69
   7  -7  -5  559.37   53.05
   7  -7  -5  525.32   52.90
   7  -7  -5  448.38   46.36
   7  -7  -4  224.12   45.08
   7  -7  -4  353.28   46.29
   7  -7  -4  218.04   44.72
   7  -7  -3   77.72   41.55
   7  -7  -3  109.55   53.68
   7  -7  -2  103.55   42.76
   7  -7  -2  104.38   53.79
   7  -7  -1  187.20   41.58
   7  -7  -1  181.75   47.88
   7  -7  -1  268.67   58.87
   7  -7   0  214.02   43.67
   7  -7   0  270.84   52.61
   7  -7   0  264.11   60.10
   7  -7   1  161.44   51.34
   7  -7   1   47.41   63.76
   7  -7   2   52.52   51.62
   7  -7   2    8.59   64.37
   7  -7   3   12.28   45.05
   7  -7   4   40.83   45.24
   7  -7   5   41.27   47.36
   7  -7   6   71.52   46.88
   7  -6  -9  131.35   57.45
   7  -6  -8   50.22   52.67
   7  -6  -7  -39.59   49.26
   7  -6  -6    6.38   33.73
   7  -6  -6   12.00   43.25
   7  -6  -5   51.09   41.51
   7  -6  -5  -18.11   46.14
   7  -6  -5   10.60   47.46
   7  -6  -5   23.43   35.76
   7  -6  -4  116.09   39.83
   7  -6  -4  138.31   40.73
   7  -6  -4  155.51   38.73
   7  -6  -4  112.75   40.77
   7  -6  -3  -20.43   37.38
   7  -6  -2  -27.63   38.02
   7  -6  -2  -11.28   48.34
   7  -6  -1   -9.43   38.79
   7  -6  -1   29.50   43.22
   7  -6  -1   10.73   49.28
   7  -6   0    4.70   38.61
   7  -6   0   40.21   43.71
   7  -6   0   77.96   53.23
   7  -6   1   54.45   40.74
   7  -6   1  135.10   46.99
   7  -6   1  180.44   56.31
   7  -6   2  140.72   47.74
   7  -6   2  123.63   60.38
   7  -6   3  148.55   51.04
   7  -6   3  220.66   62.62
   7  -6   4   58.66   42.37
   7  -6   4   45.93   52.05
   7  -6   5  193.53   47.77
   7  -6   6  371.38   52.88
   7  -6   7  115.73   52.19
   7  -5  -9  130.00   57.70
   7  -5  -8   53.71   53.45
   7  -5  -7   10.90   48.24
   7  -5  -6   62.34   44.90
   7  -5  -6   99.13   45.20
   7  -5  -5  162.31   41.70
   7  -5  -5  139.81   35.81
   7  -5  -5  140.70   46.31
   7  -5  -4  533.46   43.17
   7  -5  -4  556.63   49.48
   7  -5  -4  525.02   43.42
   7  -5  -4  449.56   40.08
   7  -5  -3  411.59   36.84
   7  -5  -3  317.28   39.27
   7  -5  -3  409.45   36.30
   7  -5  -2  101.93   34.99
   7  -5  -2   84.86   37.00
   7  -5  -2   60.80   45.59
   7  -5  -1  177.06   37.72
   7  -5  -1  148.48   38.54
   7  -5  -1  150.87   47.85
   7  -5   0  792.02   46.14
   7  -5   0  659.48   47.97
   7  -5   0  768.97   56.02
   7  -5   1  725.13   46.16
   7  -5   1  788.07   51.15
   7  -5   1  802.46   57.67
   7  -5   2  555.16   44.44
   7  -5   2  581.43   49.88
   7  -5   2  549.73   59.35
   7  -5   3  305.97   40.59
   7  -5   3  366.43   49.73
   7  -5   3  330.97   58.96
   7  -5   4  431.85   53.30
   7  -5   4  486.75   62.89
   7  -5   5  416.81   55.66
   7  -5   5  654.20   66.01
   7  -5   6  455.65   58.06
   7  -5   6  343.86   52.54
   7  -5   7  183.17   51.37
   7  -5   8  136.33   51.42
   7  -4  -8  203.16   55.08
   7  -4  -7   40.34   47.34
   7  -4  -6  145.58   46.12
   7  -4  -6  130.95   45.96
   7  -4  -5  308.25   45.18
   7  -4  -5  282.19   45.33
   7  -4  -4  362.75   36.54
   7  -4  -4  390.69   46.65
   7  -4  -4  382.09   41.44
   7  -4  -3  456.21   34.99
   7  -4  -3  493.03   40.31
   7  -4  -3  479.64   47.21
   7  -4  -2  230.75   34.10
   7  -4  -2  291.04   28.17
   7  -4  -2  218.27   35.70
   7  -4  -1  141.94   33.39
   7  -4  -1  147.01   36.58
   7  -4  -1  178.27   42.72
   7  -4   0  281.33   36.37
   7  -4   0  305.38   39.44
   7  -4   0  296.17   44.48
   7  -4   1   78.80   35.33
   7  -4   1  110.43   38.11
   7  -4   1  129.08   44.21
   7  -4   2  163.49   36.82
   7  -4   2  178.03   41.32
   7  -4   2  174.57   47.34
   7  -4   3  220.03   40.78
   7  -4   3  298.62   44.05
   7  -4   3  293.44   53.29
   7  -4   4   87.62   42.27
   7  -4   4  211.73   46.26
   7  -4   4  197.22   54.76
   7  -4   5   96.84   47.11
   7  -4   5  211.87   58.92
   7  -4   6  154.78   44.60
   7  -4   6  188.98   60.68
   7  -4   6   71.20   50.15
   7  -4   7   70.84   46.45
   7  -4   7  104.91   46.99
   7  -4   7  124.30   53.96
   7  -4   8  108.17   49.76
   7  -4   8  118.49   52.20
   7  -4   9  203.19   51.15
   7  -4   9  160.08   55.56
   7  -3  -9   63.36   58.70
   7  -3  -7  105.02   49.09
   7  -3  -6   60.83   44.71
   7  -3  -6   41.38   46.66
   7  -3  -5    1.28   40.01
   7  -3  -5   -7.43   43.30
   7  -3  -4   -9.56   36.68
   7  -3  -4   23.01   40.42
   7  -3  -3   19.74   34.96
   7  -3  -3   -9.72   39.54
   7  -3  -2    8.90   31.04
   7  -3  -2  -15.23   33.10
   7  -3  -1   38.92   31.23
   7  -3  -1  -19.59   30.78
   7  -3   0  106.52   29.72
   7  -3   0  114.71   33.35
   7  -3   0  143.38   40.16
   7  -3   1  105.94   30.10
   7  -3   1  124.70   35.65
   7  -3   1  112.98   39.66
   7  -3   2  267.89   37.85
   7  -3   2  306.97   39.86
   7  -3   2  408.90   46.32
   7  -3   3  120.82   38.47
   7  -3   3  184.14   39.82
   7  -3   3  174.44   46.62
   7  -3   4   92.95   39.95
   7  -3   4   58.40   48.96
   7  -3   4   98.29   41.19
   7  -3   5  151.02   41.28
   7  -3   5  177.64   38.31
   7  -3   5  203.20   53.49
   7  -3   5  184.31   45.51
   7  -3   6  355.25   44.21
   7  -3   6  417.60   46.61
   7  -3   6  419.76   52.48
   7  -3   6  584.07   59.44
   7  -3   7  368.66   49.48
   7  -3   7  414.55   54.87
   7  -3   8  369.25   53.70
   7  -3   9  156.45   54.47
   7  -3  10  313.42   57.56
   7  -2  -9  174.79   59.33
   7  -2  -8  107.61   54.75
   7  -2  -6  -34.70   43.77
   7  -2  -6  -11.14   46.41
   7  -2  -5   97.70   42.33
   7  -2  -5  133.78   44.24
   7  -2  -4  135.18   38.33
   7  -2  -4  144.15   42.76
   7  -2  -3  688.24   45.83
   7  -2  -3  597.51   41.06
   7  -2  -2  370.82   37.27
   7  -2  -2  450.27   42.01
   7  -2  -1  107.23   32.08
   7  -2  -1  176.03   32.93
   7  -2   0  236.75   32.40
   7  -2   0  284.76   31.75
   7  -2   1  605.16   34.65
   7  -2   1  620.02   38.93
   7  -2   1  556.64   44.18
   7  -2   2  738.46   40.06
   7  -2   2  759.71   42.53
   7  -2   2  732.94   46.50
   7  -2   3  599.42   41.26
   7  -2   3  595.44   41.76
   7  -2   3  619.78   47.35
   7  -2   4  656.12   42.62
   7  -2   4  514.17   50.58
   7  -2   4  552.97   44.55
   7  -2   5  469.13   41.10
   7  -2   5  373.96   39.42
   7  -2   5  398.78   44.22
   7  -2   5  408.89   51.37
   7  -2   6 1009.69   53.12
   7  -2   6 1044.11   58.36
   7  -2   6 1194.68   66.20
   7  -2   7  712.84   52.51
   7  -2   7  754.17   57.42
   7  -2   7  880.35   64.04
   7  -2   8  558.93   53.79
   7  -2   8  596.46   55.69
   7  -2   9  596.11   58.30
   7  -2  10  536.36   60.79
   7  -2  10  594.48   61.15
   7  -2  11  358.27   61.61
   7  -1  -8  248.82   54.13
   7  -1  -7  396.99   52.55
   7  -1  -6  235.37   52.87
   7  -1  -5  123.24   41.63
   7  -1  -5  231.61   47.22
   7  -1  -4  314.42   39.76
   7  -1  -4  263.85   44.39
   7  -1  -3  388.75   37.15
   7  -1  -3  311.88   41.65
   7  -1  -2  656.91   44.08
   7  -1  -2  710.96   40.56
   7  -1  -1  240.02   33.26
   7  -1  -1  253.69   37.92
   7  -1   0  235.72   31.83
   7  -1   0  282.33   32.55
   7  -1   1  392.27   35.39
   7  -1   1  422.60   34.25
   7  -1   2  127.06   31.55
   7  -1   2  196.31   32.43
   7  -1   2  264.10   40.09
   7  -1   3   49.72   30.32
   7  -1   3   39.58   30.91
   7  -1   3   33.98   37.90
   7  -1   4  329.37   34.28
   7  -1   4  375.58   37.52
   7  -1   4  353.82   42.02
   7  -1   5  369.87   36.11
   7  -1   5  502.40   41.82
   7  -1   5  344.46   47.65
   7  -1   6  271.99   38.48
   7  -1   6  352.13   41.60
   7  -1   6  280.07   47.01
   7  -1   7  194.24   42.04
   7  -1   7  244.05   44.96
   7  -1   8  136.99   44.18
   7  -1   8  170.65   46.05
   7  -1   9  371.48   53.46
   7  -1  10  370.00   55.17
   7  -1  10  374.55   55.73
   7  -1  11   28.18   53.39
   7  -1  11   38.63   53.62
   7   0  -8  100.42   51.82
   7   0  -7   94.69   48.19
   7   0  -6  381.20   48.03
   7   0  -5  209.27   50.51
   7   0  -4   26.34   43.23
   7   0  -3   17.65   34.20
   7   0  -3   42.58   39.72
   7   0  -2   15.77   33.66
   7   0  -2   30.00   38.54
   7   0  -1   64.67   30.59
   7   0  -1   91.46   34.64
   7   0   0  109.81   30.14
   7   0   0   71.81   35.72
   7   0   1  -58.37   32.90
   7   0   2  363.71   33.32
   7   0   2  363.61   36.24
   7   0   3  239.00   30.64
   7   0   3  204.56   31.54
   7   0   3  186.95   36.58
   7   0   4  184.57   30.40
   7   0   4  132.84   31.93
   7   0   4  132.23   35.82
   7   0   5  129.92   33.82
   7   0   5  130.10   38.47
   7   0   6  232.13   36.22
   7   0   6  206.21   43.32
   7   0   7  367.42   40.74
   7   0   8  331.62   43.55
   7   0   9  353.10   48.46
   7   0  10  232.67   51.08
   7   0  10  199.58   48.15
   7   0  11  510.41   54.85
   7   0  12  449.49   61.32
   7   0  12  441.30   56.41
   7   1  -7  110.53   48.13
   7   1  -6   26.16   44.70
   7   1  -5   42.98   39.95
   7   1  -4   86.55   48.16
   7   1  -3  241.56   45.09
   7   1  -2  766.12   48.37
   7   1  -2  733.00   39.54
   7   1  -1  326.26   36.19
   7   1  -1  346.14   41.53
   7   1   0  117.66   30.47
   7   1   0  118.00   36.72
   7   1   1  291.00   37.25
   7   1   1  242.75   35.51
   7   1   2 1804.59   56.03
   7   1   2 1657.33   58.05
   7   1   3  973.81   43.01
   7   1   4  423.20   34.94
   7   1   4  381.21   39.40
   7   1   5 1381.24   51.45
   7   1   5 1326.67   51.05
   7   1   6  943.58   44.92
   7   1   7 1140.72   50.98
   7   1   8  600.26   46.61
   7   1   9  909.72   57.02
   7   1   9 1165.28   60.37
   7   1  10  947.82   61.72
   7   1  10  925.74   56.28
   7   1  10 1237.05   65.32
   7   1  11 1075.08   59.45
   7   1  12  284.37   49.83
   7   1  12  302.94   74.95
   7   2  -7  213.66   47.95
   7   2  -6  182.91   44.23
   7   2  -5  269.92   42.47
   7   2  -4  432.30   41.71
   7   2  -3  399.79   50.97
   7   2  -3  340.49   36.75
   7   2  -2  283.32   46.28
   7   2  -1  723.22   47.66
   7   2  -1  689.95   39.32
   7   2   0  795.84   38.93
   7   2   0  759.61   47.28
   7   2   1  954.69   42.22
   7   2   1  972.03   47.74
   7   2   2  832.23   45.25
   7   2   2  940.72   42.24
   7   2   3  825.08   40.96
   7   2   3  675.38   40.79
   7   2   7  282.34   40.60
   7   2   8   91.72   36.76
   7   2   8   91.77   39.97
   7   2   8   46.99   42.38
   7   2   9   63.38   45.27
   7   2   9   52.09   51.54
   7   2   9   43.31   41.01
   7   2  10   36.94   55.04
   7   2  10  114.44   48.58
   7   2  10   68.85   45.18
   7   2  11   87.52   61.75
   7   2  11  248.43   54.53
   7   2  11   93.86   49.77
   7   2  12   46.38   68.79
   7   2  12  180.66   56.45
   7   2  13  135.61   78.54
   7   3  -6  119.26   41.87
   7   3  -5  207.45   40.81
   7   3  -4  330.06   40.40
   7   3  -4  362.60   40.09
   7   3  -3  220.10   34.85
   7   3  -3  167.89   33.82
   7   3  -2   80.06   32.32
   7   3  -2   37.98   29.33
   7   3  -1   80.62   25.15
   7   3  -1  107.96   44.60
   7   3   0   54.71   22.25
   7   3   0  150.00   40.54
   7   3   1   98.00   33.36
   7   3   1   43.96   20.20
   7   3   1   54.81   18.27
   7   3   1   70.00   36.91
   7   3   2  117.37   31.74
   7   3   2  102.08   35.23
   7   3   3  128.44   31.14
   7   3   3   42.43   32.00
   7   3   7  489.39   36.07
   7   3   8  654.79   45.42
   7   3   8  711.34   40.32
   7   3   9  945.80   46.62
   7   3   9  726.33   54.52
   7   3  10  970.49   59.45
   7   3  10  986.85   52.94
   7   3  10  941.17   62.00
   7   3  11  630.58   57.59
   7   3  11  714.09   53.69
   7   3  11  653.94   66.17
   7   3  12  301.40   67.79
   7   3  12  414.31   54.51
   7   3  13  324.72   73.32
   7   3  13  388.50   58.79
   7   4  -5   59.74   37.52
   7   4  -5    1.64   46.84
   7   4  -4   86.27   36.58
   7   4  -4   14.09   43.01
   7   4  -3   94.51   33.23
   7   4  -3   22.62   39.79
   7   4  -2  186.18   31.93
   7   4  -2  179.45   35.92
   7   4  -1  252.10   32.88
   7   4  -1  261.40   33.56
   7   4   0  146.16   43.40
   7   4   0  230.51   29.51
   7   4   0  156.96   48.25
   7   4   1  471.66   44.24
   7   4   1  467.17   28.03
   7   4   1  442.92   31.46
   7   4   1  582.20   43.98
   7   4   2 1015.75   43.51
   7   4   2  869.42   47.21
   7   4   2  922.61   48.63
   7   4   3 1179.99   45.67
   7   4   3 1135.33   51.44
   7   4   6 1864.25   55.35
   7   4   9  510.14   36.24
   7   4   9  490.99   46.50
   7   4  10 1346.34   50.21
   7   4  10 1187.15   62.45
   7   4  11 1311.41   53.91
   7   4  11 1210.15   68.07
   7   4  12  483.51   49.45
   7   4  12  610.15   66.16
   7   4  13  119.58   50.72
   7   4  13  122.73   67.87
   7   5  -5  283.06   54.54
   7   5  -4  658.38   39.52
   7   5  -4  551.73   56.53
   7   5  -3  630.86   37.72
   7   5  -3  707.63   52.10
   7   5  -2  390.61   43.48
   7   5  -2  394.90   57.14
   7   5  -2  344.86   32.03
   7   5  -1  462.24   54.09
   7   5  -1  438.68   41.39
   7   5  -1  401.01   31.31
   7   5   0  913.87   44.30
   7   5   0  934.37   55.58
   7   5   0 1017.97   45.47
   7   5   0  920.90   39.61
   7   5   1 1103.61   43.51
   7   5   1 1165.38   44.19
   7   5   1 1140.25   47.17
   7   5   1 1235.60   56.50
   7   5   2 1307.11   45.97
   7   5   2 1331.03   56.95
   7   5   3  871.76   50.30
   7   5   4  485.75   44.57
   7   5   5  350.22   42.38
   7   5   5  308.49   35.04
   7   5   6  800.36   47.22
   7   5   6  778.17   43.82
   7   5   6  769.50   37.06
   7   5   7  635.76   42.41
   7   5   7  618.54   33.56
   7   5   8  121.64   26.51
   7   5   8  161.63   38.78
   7   5   9   33.97   39.35
   7   5  10   -0.38   41.94
   7   5  11   10.02   28.81
   7   5  11  -14.02   54.63
   7   5  12   46.18   32.87
   7   5  12    9.08   58.78
   7   5  13   45.46   37.81
   7   5  13   36.98   64.02
   7   6  -4  306.95   55.71
   7   6  -3  546.40   55.34
   7   6  -3  522.88   67.70
   7   6  -2  186.36   28.07
   7   6  -2  238.75   48.61
   7   6  -2  238.93   61.06
   7   6  -1   35.04   26.30
   7   6  -1   61.05   42.78
   7   6  -1   16.70   54.34
   7   6   0   23.40   28.33
   7   6   0   21.15   37.87
   7   6   0   94.79   39.61
   7   6   0    7.69   50.96
   7   6   1   94.74   30.77
   7   6   1   59.04   38.35
   7   6   1  105.49   33.96
   7   6   1   61.98   47.34
   7   6   2   25.09   34.34
   7   6   2  -32.14   45.43
   7   6   2   57.92   34.39
   7   6   3  -23.33   45.04
   7   6   4  151.85   45.11
   7   6   5  143.11   37.21
   7   6   5  139.70   45.30
   7   6   6  149.39   36.18
   7   6   6  188.04   45.54
   7   6   6  144.59   31.95
   7   6   7  278.67   38.95
   7   6   7  257.78   29.43
   7   6   8  408.00   46.13
   7   6   8  381.07   42.94
   7   6   8  351.14   26.58
   7   6   9  152.78   21.67
   7   6   9  224.55   43.24
   7   6  10  146.16   19.17
   7   6  10  241.70   45.43
   7   6  12  805.63   59.36
   7   6  13  196.19   28.27
   7   7  -3   50.98   67.71
   7   7  -3   60.81   54.92
   7   7  -2  125.42   63.18
   7   7  -2  157.25   52.67
   7   7  -1   71.18   60.16
   7   7  -1   52.63   49.16
   7   7  -1   58.45   23.74
   7   7   0  246.89   57.17
   7   7   0  168.45   44.42
   7   7   0  259.78   47.44
   7   7   0  195.74   25.47
   7   7   1  525.57   44.26
   7   7   1  443.98   31.50
   7   7   1  415.46   48.96
   7   7   1  458.88   57.01
   7   7   2  772.34   43.75
   7   7   2  875.58   49.33
   7   7   2  862.75   60.23
   7   7   3 1074.11   60.80
   7   7   3 1086.13   46.15
   7   7   4  610.27   46.98
   7   7   4  546.33   53.75
   7   7   5  714.70   48.69
   7   7   5  695.07   54.72
   7   7   6  855.49   51.64
   7   7   6  850.24   55.37
   7   7   7 1401.25   59.37
   7   7   8  782.83   51.30
   7   7   9  406.65   47.28
   7   7   9  430.97   50.39
   7   7  10  199.48   47.08
   7   7  10  207.69   45.62
   7   8  -1  563.69   70.78
   7   8  -1  549.20   60.69
   7   8   0  221.07   63.58
   7   8   0  181.99   48.64
   7   8   0  228.01   52.50
   7   8   0  104.09   19.52
   7   8   1  779.52   52.78
   7   8   1  792.00   67.15
   7   8   1  694.39   57.74
   7   8   1  597.68   30.94
   7   8   2  699.77   49.04
   7   8   2  629.09   36.31
   7   8   2  749.73   55.28
   7   8   2  772.54   61.45
   7   8   3  633.38   41.13
   7   8   3  672.30   59.22
   7   8   3  667.23   48.83
   7   8   4  395.97   46.63
   7   8   4  369.17   56.94
   7   8   5  333.34   45.92
   7   8   5  268.31   53.59
   7   8   6  236.62   44.63
   7   8   6  245.75   52.63
   7   8   7  406.86   47.72
   7   8   8  199.44   45.16
   7   8   9   39.15   43.33
   7   8   9   42.41   50.13
   7   8  10   76.81   51.66
   7   8  11  102.88   50.33
   7   9   0   65.19   55.59
   7   9   0   -7.14   52.01
   7   9   0   70.65   68.48
   7   9   1   91.64   50.03
   7   9   1   71.61   54.40
   7   9   1   97.26   62.96
   7   9   2   90.66   24.98
   7   9   2   83.51   60.66
   7   9   2   35.37   51.45
   7   9   2  211.06   46.11
   7   9   3  163.39   48.82
   7   9   3   66.92   35.90
   7   9   3  108.53   59.39
   7   9   3  212.34   48.46
   7   9   4   41.98   56.95
   7   9   5   50.03   54.91
   7   9   5   64.35   46.00
   7   9   6    9.09   53.15
   7   9   6   28.01   46.56
   7   9   9  156.10   56.18
   7   9  10   52.57   55.88
   7   9  11   59.98   55.26
   7   9  12  257.79   57.01
   7  10   2  207.65   58.92
   7  10   2  216.06   50.62
   7  10   2  269.96   68.15
   7  10   2  105.84   14.76
   7  10   3  669.92   58.02
   7  10   3  560.18   33.98
   7  10   3  551.29   59.44
   7  10   3  730.20   70.33
   7  10   4  324.01   39.37
   7  10   4  487.37   66.04
   7  10   4  464.00   53.29
   7  10   5  111.27   61.07
   7  10  11   45.25   57.93
   7  10  12  362.74   64.48
   7  11   4  161.99   69.25
   7  11   4  180.08   35.27
   7  11   4  217.34   34.87
   7  11   4  298.27   56.17
   7  11   5  173.78   40.46
   7  11   6  177.00   44.49
   7  11   7   67.38   46.75
   7  11   8  102.70   49.83
   7  11   9  107.19   53.57
   8 -10  -2  148.09   56.47
   8 -10  -1  198.95   55.62
   8 -10   0  117.22   54.98
   8  -9  -6  177.24   57.27
   8  -9  -6  254.20   64.08
   8  -9  -6  184.60   61.16
   8  -9  -6  137.88   50.34
   8  -9  -5  115.97   55.70
   8  -9  -5  215.71   64.82
   8  -9  -5  109.59   52.05
   8  -9  -5  123.60   57.33
   8  -9  -4  120.47   55.38
   8  -9  -4   75.03   53.08
   8  -9  -3    2.12   51.68
   8  -9   0  127.72   51.03
   8  -9   1   23.72   50.94
   8  -9   2  -17.03   51.36
   8  -8  -7  -13.91   54.80
   8  -8  -7    0.32   39.94
   8  -8  -6   29.97   52.76
   8  -8  -6   -8.52   61.04
   8  -8  -6   20.62   58.92
   8  -8  -6   33.56   44.47
   8  -8  -5  -29.53   50.01
   8  -8  -5  -39.52   53.24
   8  -8  -5   30.35   51.78
   8  -8  -5   45.53   45.46
   8  -8  -4   34.23   49.84
   8  -8  -4  115.27   49.12
   8  -8  -4   83.96   47.97
   8  -8  -3   -3.16   48.34
   8  -8  -3   32.00   50.35
   8  -8  -2   -5.39   46.68
   8  -8   1   -1.11   50.37
   8  -8   2   31.35   51.64
   8  -8   3   48.98   50.87
   8  -8   4  159.32   53.74
   8  -7  -8    1.04   57.49
   8  -7  -7  100.57   54.10
   8  -7  -7  133.67   37.23
   8  -7  -6  101.28   51.18
   8  -7  -6   87.33   40.26
   8  -7  -5  208.52   50.55
   8  -7  -5  231.44   52.98
   8  -7  -5  268.75   53.99
   8  -7  -5  161.64   44.38
   8  -7  -4  264.22   48.41
   8  -7  -4  297.34   48.05
   8  -7  -4  219.08   48.10
   8  -7  -4  308.33   47.00
   8  -7  -3  101.30   48.36
   8  -7  -3  112.02   45.89
   8  -7  -2   60.65   45.79
   8  -7  -2   71.55   59.08
   8  -7  -1  203.38   46.25
   8  -7  -1  249.46   61.58
   8  -7   0  313.84   48.27
   8  -7   0  229.92   53.30
   8  -7   0  343.05   64.47
   8  -7   1  216.26   54.85
   8  -7   3  120.45   49.22
   8  -7   4  191.68   52.94
   8  -7   5  423.88   54.13
   8  -7   6  235.96   52.19
   8  -6  -8  178.89   58.38
   8  -6  -7   48.81   53.69
   8  -6  -6   91.48   36.97
   8  -6  -6   22.85   49.50
   8  -6  -5  139.15   47.29
   8  -6  -5  216.73   53.17
   8  -6  -5  154.52   41.04
   8  -6  -4  370.20   55.79
   8  -6  -4  299.34   47.32
   8  -6  -4  303.32   49.33
   8  -6  -4  316.09   44.96
   8  -6  -4  327.57   45.69
   8  -6  -3  290.91   45.79
   8  -6  -3  249.37   39.79
   8  -6  -3  247.17   44.24
   8  -6  -2  109.97   42.37
   8  -6  -2   25.88   53.22
   8  -6  -1  147.17   43.23
   8  -6  -1  171.34   46.26
   8  -6  -1  126.08   55.09
   8  -6   0  166.38   44.28
   8  -6   0  135.77   47.47
   8  -6   0  167.96   56.02
   8  -6   1   36.51   43.45
   8  -6   1   95.50   48.78
   8  -6   1   90.84   58.05
   8  -6   2  -10.64   46.61
   8  -6   2   52.02   50.06
   8  -6   2  -45.87   60.50
   8  -6   3   37.07   51.78
   8  -6   3  -48.88   66.53
   8  -6   5   45.26   48.49
   8  -6   6  -13.03   50.39
   8  -6   7  -45.09   54.38
   8  -5  -8   38.16   56.57
   8  -5  -7   25.89   52.16
   8  -5  -6    2.09   48.35
   8  -5  -5   95.65   46.06
   8  -5  -5   51.06   36.35
   8  -5  -5   28.92   49.27
   8  -5  -4   29.77   40.04
   8  -5  -4   26.07   49.75
   8  -5  -4   31.75   37.39
   8  -5  -3   18.41   39.74
   8  -5  -3  -20.26   35.33
   8  -5  -3    2.55   35.15
   8  -5  -3   18.62   37.44
   8  -5  -2  -51.49   38.17
   8  -5  -2   14.71   30.73
   8  -5  -1  -52.84   40.39
   8  -5  -1   24.62   40.85
   8  -5  -1   13.71   51.12
   8  -5   0   39.25   40.68
   8  -5   0  129.72   43.96
   8  -5   0   -9.34   49.43
   8  -5   1  147.22   42.29
   8  -5   1  177.81   46.48
   8  -5   1   96.85   52.34
   8  -5   2   70.25   42.11
   8  -5   2   36.89   45.81
   8  -5   2   61.89   54.08
   8  -5   3   34.54   43.20
   8  -5   3   34.28   47.59
   8  -5   3   -0.52   57.99
   8  -5   4   73.53   50.78
   8  -5   4   13.13   62.71
   8  -5   6  208.50   55.13
   8  -5   6  316.08   55.59
   8  -5   7  118.92   53.97
   8  -5   8   61.73   56.82
   8  -4  -7   55.85   52.97
   8  -4  -6   19.37   49.37
   8  -4  -5   54.20   45.80
   8  -4  -5  127.44   48.94
   8  -4  -4  214.08   43.34
   8  -4  -4  211.17   39.06
   8  -4  -4  213.23   48.09
   8  -4  -3  216.83   41.72
   8  -4  -3  242.19   49.62
   8  -4  -3  222.20   39.05
   8  -4  -2   41.87   28.07
   8  -4  -2   11.87   36.70
   8  -4  -2   47.13   27.99
   8  -4  -1   32.38   37.60
   8  -4  -1    0.31   36.54
   8  -4   0  317.44   41.10
   8  -4   0  309.81   42.78
   8  -4   0  309.80   49.98
   8  -4   1  895.98   49.39
   8  -4   1  819.27   53.06
   8  -4   1  911.54   58.09
   8  -4   2  330.20   42.61
   8  -4   2  334.26   46.92
   8  -4   2  355.89   52.31
   8  -4   3  207.59   42.97
   8  -4   3  237.88   47.52
   8  -4   3  251.78   54.95
   8  -4   4  154.07   49.49
   8  -4   4  215.82   50.18
   8  -4   4  164.64   59.86
   8  -4   5  375.62   54.17
   8  -4   5  426.35   65.15
   8  -4   5  458.87   49.49
   8  -4   5  370.15   55.13
   8  -4   6  703.84   70.54
   8  -4   6  531.29   56.80
   8  -4   6  554.82   61.59
   8  -4   7  293.59   54.37
   8  -4   7  316.02   57.06
   8  -4   8  188.79   55.04
   8  -4   9  189.65   54.52
   8  -3  -6   46.10   47.90
   8  -3  -5  176.02   47.77
   8  -3  -5  150.71   48.75
   8  -3  -4  293.02   43.71
   8  -3  -4  308.63   48.86
   8  -3  -3  298.09   46.97
   8  -3  -3  273.68   42.06
   8  -3  -2  128.61   39.14
   8  -3  -2  149.52   45.30
   8  -3  -1  125.70   37.09
   8  -3  -1  125.20   36.72
   8  -3  -1  101.23   21.03
   8  -3   0  223.16   37.45
   8  -3   0  172.33   36.73
   8  -3   1  257.26   36.41
   8  -3   1  320.66   40.65
   8  -3   1  291.12   46.12
   8  -3   2  247.96   38.14
   8  -3   2  210.28   41.30
   8  -3   2  227.35   46.78
   8  -3   3  153.45   42.48
   8  -3   3  198.73   43.24
   8  -3   3  196.94   48.31
   8  -3   4  137.05   45.31
   8  -3   4  199.69   51.65
   8  -3   4  230.99   38.84
   8  -3   4  197.88   44.71
   8  -3   5   64.92   45.35
   8  -3   5   49.72   41.34
   8  -3   5   10.12   58.87
   8  -3   5   57.22   47.31
   8  -3   6   89.84   49.12
   8  -3   6    7.98   49.29
   8  -3   6   80.97   51.58
   8  -3   6  101.66   61.06
   8  -3   7   63.61   52.90
   8  -3   7   97.96   62.98
   8  -3   9  142.92   50.47
   8  -3  10  219.00   53.66
   8  -2  -8  132.32   56.84
   8  -2  -5  -28.68   43.76
   8  -2  -5   21.64   48.42
   8  -2  -4   73.20   40.82
   8  -2  -4   78.93   45.65
   8  -2  -3    7.84   38.68
   8  -2  -3   15.12   42.26
   8  -2  -2  -29.18   37.49
   8  -2  -2   10.45   41.79
   8  -2  -1   -9.21   36.13
   8  -2  -1    3.77   33.94
   8  -2  -1  -14.15   41.80
   8  -2   0    9.95   32.77
   8  -2   0    7.06   33.72
   8  -2   1   27.22   32.06
   8  -2   1   13.60   35.03
   8  -2   1   26.11   41.22
   8  -2   2   87.75   36.09
   8  -2   2  122.56   35.90
   8  -2   2  155.11   42.98
   8  -2   3   35.97   37.94
   8  -2   3   30.61   42.77
   8  -2   3   62.20   37.08
   8  -2   4   20.48   40.75
   8  -2   4    6.10   33.42
   8  -2   4   84.57   45.79
   8  -2   4   54.90   39.40
   8  -2   5  118.72   41.56
   8  -2   5   34.43   39.32
   8  -2   5  119.42   42.04
   8  -2   5  100.90   50.28
   8  -2   6  321.09   45.24
   8  -2   6  366.46   49.60
   8  -2   6  264.02   57.92
   8  -2   7  561.97   55.24
   8  -2   7  568.38   50.77
   8  -2   8  394.69   56.12
   8  -1  -7   16.49   51.64
   8  -1  -4  105.50   42.33
   8  -1  -4   22.90   46.25
   8  -1  -3  169.39   41.58
   8  -1  -3  157.38   44.73
   8  -1  -2  470.49   47.06
   8  -1  -2  546.06   43.05
   8  -1  -1  302.21   43.28
   8  -1  -1  363.78   39.27
   8  -1   0  135.57   36.93
   8  -1   0  177.22   35.63
   8  -1   0  216.57   42.64
   8  -1   1  398.23   38.51
   8  -1   1  439.34   39.16
   8  -1   2  766.03   44.18
   8  -1   2  622.34   42.12
   8  -1   2  736.98   49.89
   8  -1   3  678.12   44.00
   8  -1   3  605.65   42.80
   8  -1   3  606.07   31.31
   8  -1   3  668.13   49.27
   8  -1   4  662.78   43.43
   8  -1   4  537.93   42.87
   8  -1   4  484.43   36.91
   8  -1   4  606.57   47.47
   8  -1   5  528.55   42.65
   8  -1   5  421.38   44.00
   8  -1   5  435.56   41.75
   8  -1   5  477.14   47.92
   8  -1   6  422.80   44.84
   8  -1   6  382.80   44.37
   8  -1   6  328.07   51.32
   8  -1   7  636.69   51.48
   8  -1   8  710.54   57.06
   8  -1  10  747.67   72.72
   8   0  -7  187.19   51.48
   8   0  -6  127.77   47.44
   8   0  -5  190.95   46.91
   8   0  -4  401.87   52.57
   8   0  -3  598.37   52.07
   8   0  -3  604.42   44.99
   8   0  -2  852.29   46.63
   8   0  -2  844.27   53.90
   8   0  -1  450.28   45.74
   8   0  -1  520.55   40.91
   8   0   0  240.86   36.83
   8   0   0  218.60   41.48
   8   0   1  608.46   41.15
   8   0   1  607.67   47.22
   8   0   2  648.98   44.50
   8   0   2  521.75   41.21
   8   0   3  127.62   37.32
   8   0   3  116.03   20.80
   8   0   3   84.45   21.98
   8   0   3   50.73   23.05
   8   0   3  131.83   33.57
   8   0   3   73.15   23.78
   8   0   4  435.81   39.50
   8   0   4  480.50   39.47
   8   0   4  488.74   32.18
   8   0   4  504.57   44.71
   8   0   5  692.71   42.29
   8   0   5  687.10   44.48
   8   0   5  625.62   39.33
   8   0   5  690.56   47.32
   8   0   6  249.50   40.06
   8   0   7   96.09   40.81
   8   0   8  254.47   46.00
   8   0   9  311.44   59.94
   8   0  10  390.32   54.56
   8   0  10  629.55   67.34
   8   0  11  304.84   66.27
   8   1  -6  112.58   47.92
   8   1  -5  152.07   46.84
   8   1  -4  235.52   54.28
   8   1  -4  289.80   44.80
   8   1  -3  125.72   48.87
   8   1  -2   75.88   47.08
   8   1  -1  138.67   44.18
   8   1  -1  101.63   36.35
   8   1   0  226.72   42.94
   8   1   0  233.84   36.41
   8   1   1   84.84   38.40
   8   1   1   25.49   35.17
   8   1   2   63.86   40.30
   8   1   2  -29.28   37.33
   8   1   3  278.31   21.03
   8   1   3  432.14   41.59
   8   1   4  114.37   36.39
   8   1   4   72.75   26.96
   8   1   4   71.30   25.31
   8   1   5  174.53   36.09
   8   1   5  129.56   30.74
   8   1   6   73.04   35.56
   8   1   7  296.12   41.04
   8   1   8  219.59   42.17
   8   1   8  189.63   47.37
   8   1   9  157.58   54.13
   8   1  10  238.30   58.39
   8   1  11  197.70   50.17
   8   1  11  309.96   62.42
   8   1  12  507.47   69.33
   8   2  -6   46.68   44.42
   8   2  -5   14.42   42.01
   8   2  -4   23.15   39.36
   8   2  -3  132.13   52.32
   8   2  -3   78.26   37.75
   8   2  -2  118.11   48.84
   8   2  -1  421.37   49.22
   8   2   0  262.81   37.60
   8   2   0  323.22   45.77
   8   2   1  221.91   41.70
   8   2   1  193.06   38.00
   8   2   2  292.48   40.20
   8   2   2  370.43   42.64
   8   2   3  864.45   44.47
   8   2   3  724.91   44.55
   8   2   4  970.46   45.96
   8   2   4  730.96   31.98
   8   2   5  678.44   35.88
   8   2   6  681.49   40.10
   8   2   8  473.69   44.19
   8   2   9  653.26   52.23
   8   2  10 1094.26   62.54
   8   2  11  659.20   62.67
   8   2  12  510.63   63.62
   8   3  -5  243.82   43.08
   8   3  -4  232.36   41.81
   8   3  -3  459.85   42.67
   8   3  -2  177.96   37.26
   8   3  -2  202.66   28.75
   8   3  -1  391.17   38.93
   8   3  -1  441.39   54.79
   8   3  -1  279.70   24.96
   8   3   0  962.00   54.29
   8   3   0  531.32   24.61
   8   3   1  831.97   42.37
   8   3   1  759.83   48.61
   8   3   2  629.48   42.63
   8   3   2  528.41   43.62
   8   3   3  634.89   43.45
   8   3   4  675.16   42.13
   8   3   4  526.22   29.72
   8   3   5 1173.74   43.32
   8   3   6 1143.27   46.19
   8   3   7  169.81   37.85
   8   3   8   -0.95   37.62
   8   3   9  229.30   41.08
   8   3  10  234.62   44.18
   8   3  11  151.13   48.06
   8   3  12  -30.99   53.10
   8   3  13   -5.64   56.33
   8   4  -4  230.70   44.20
   8   4  -4  344.75   41.15
   8   4  -3  225.92   38.67
   8   4  -3  288.24   37.85
   8   4  -2   96.20   35.64
   8   4  -2   34.68   33.12
   8   4  -1   34.87   33.93
   8   4  -1   12.12   29.37
   8   4   0  125.15   36.08
   8   4   0   86.29   28.28
   8   4   0  129.64   49.33
   8   4   1  191.65   25.47
   8   4   1  239.81   27.31
   8   4   2   78.93   24.94
   8   4   3  283.17   41.20
   8   4   6   61.08   35.11
   8   4   7   36.21   34.99
   8   4   8  527.81   44.31
   8   4   9  112.75   35.28
   8   4  10  169.52   36.29
   8   4  11  285.69   42.82
   8   4  12  475.40   46.11
   8   4  13  522.75   53.51
   8   5  -4   69.78   35.22
   8   5  -4  -20.56   46.47
   8   5  -3   34.38   34.10
   8   5  -3   -6.65   43.18
   8   5  -2  128.13   33.11
   8   5  -2  145.50   40.36
   8   5  -1  271.15   33.87
   8   5  -1  279.40   39.13
   8   5   0  276.30   37.21
   8   5   0  254.29   37.18
   8   5   1  285.37   36.74
   8   5   1  237.15   32.72
   8   5   1  266.01   34.60
   8   5   1  305.29   49.09
   8   5   2  294.56   33.80
   8   5   2  366.18   48.98
   8   5   3  702.31   51.94
   8   5   4  680.31   50.05
   8   5   5  420.54   40.76
   8   5   6 1025.81   48.09
   8   5   7 1114.71   44.66
   8   5   8  696.35   37.76
   8   5   9  484.35   48.62
   8   5  12  629.29   40.04
   8   5  13  202.74   37.99
   8   6  -3  405.10   53.04
   8   6  -3  406.86   34.24
   8   6  -2  620.02   52.19
   8   6  -2  479.60   35.23
   8   6  -1  301.63   61.53
   8   6  -1  307.02   46.27
   8   6  -1  274.71   33.70
   8   6   0  509.06   57.86
   8   6   0  557.59   47.04
   8   6   0  596.05   37.80
   8   6   1  861.89   46.49
   8   6   1  944.54   61.27
   8   6   1  868.45   49.06
   8   6   1  952.56   44.48
   8   6   2 1119.50   47.70
   8   6   2 1200.88   51.30
   8   6   2 1089.73   50.28
   8   6   2 1197.24   62.09
   8   6   3  655.96   47.47
   8   6   3  602.80   53.76
   8   6   4  355.74   49.83
   8   6   5   94.54   39.75
   8   6   5  125.66   48.56
   8   6   6  584.48   43.29
   8   6   7  824.71   40.48
   8   6   8  139.51   30.18
   8   6   8  126.19   41.91
   8   6   9   25.85   26.94
   8   6   9   58.44   42.65
   8   6  10   85.00   45.32
   8   6  10   79.38   46.75
   8   6  10   80.37   25.16
   8   6  11   52.53   24.83
   8   7  -2  468.82   73.23
   8   7  -2  438.63   56.26
   8   7  -1  139.29   63.63
   8   7  -1   75.27   48.80
   8   7  -1   56.63   27.22
   8   7   0  112.45   58.35
   8   7   0   98.99   46.80
   8   7   0   20.57   28.39
   8   7   1    8.29   57.18
   8   7   1   31.45   40.79
   8   7   1   68.56   46.37
   8   7   1   51.11   31.59
   8   7   2  -14.57   54.17
   8   7   2   44.97   42.06
   8   7   2   97.69   36.92
   8   7   2    2.42   36.41
   8   7   3   -3.35   39.32
   8   7   3   43.18   38.47
   8   7   3   -1.12   52.96
   8   7   4  -18.11   53.04
   8   7   4   40.30   39.87
   8   7   5   21.22   53.08
   8   7   6  121.31   52.16
   8   7   6  160.03   44.52
   8   7   7   96.96   41.91
   8   7   8  166.10   53.45
   8   7   8  189.06   43.92
   8   7   9  149.47   51.64
   8   7   9  257.73   45.76
   8   8   0  131.88   64.57
   8   8   0  123.22   49.74
   8   8   0  193.24   53.94
   8   8   0  101.64   24.22
   8   8   1  121.88   62.33
   8   8   1   48.41   50.55
   8   8   1  108.16   46.37
   8   8   1   91.43   28.12
   8   8   2  625.89   49.86
   8   8   2  623.14   37.52
   8   8   2  588.24   56.11
   8   8   2  578.29   66.14
   8   8   3  639.59   46.70
   8   8   3  594.98   51.80
   8   8   3  651.37   63.90
   8   8   4  492.40   60.83
   8   8   4  571.17   45.74
   8   8   5  470.32   60.10
   8   8   6  694.11   61.21
   8   8   6  651.65   54.27
   8   8   8  748.32   62.35
   8   8  10  213.48   57.68
   8   9   1  240.99   67.57
   8   9   1  116.87   22.02
   8   9   1  238.97   57.02
   8   9   1  151.48   52.79
   8   9   2  471.96   33.62
   8   9   2  531.85   52.81
   8   9   2  678.72   70.37
   8   9   2  514.60   59.59
   8   9   3  876.89   48.38
   8   9   3 1081.33   58.22
   8   9   3 1068.32   65.53
   8   9   3 1303.84   76.01
   8   9   4  555.23   46.49
   8   9   4  673.96   67.12
   8   9   4  560.55   53.30
   8   9   5  483.82   64.61
   8   9   6  266.50   61.10
   8   9   8  156.54   61.87
   8   9   9   52.83   59.91
   8   9  10   23.56   58.76
   8   9  11   96.81   58.15
   8   9  12  132.73   56.12
   8  10   3   53.35   68.02
   8  10   3   62.43   29.14
   8  10   3   36.12   56.38
   8  10   3  107.45   49.23
   8  10   4   35.15   66.04
   8  10   4  -17.85   40.61
   8  10   4   75.69   52.01
   8  10   5   50.72   63.53
   8  10   6   -3.58   62.47
   8  10   8   24.04   62.66
   8  10   9   31.38   63.77
   8  10  10   21.78   61.71
   8  10  11   41.12   64.47
   8  11   6  164.58   69.30
   8  11   8  494.39   70.78
   8  11   9  480.27   70.78
   9  -9  -4  134.32   57.61
   9  -9  -4  146.26   58.22
   9  -9  -3   58.32   55.77
   9  -9   0   91.54   55.48
   9  -9   1  125.68   55.88
   9  -8  -5  260.68   58.45
   9  -8  -5  220.24   58.09
   9  -8  -5  220.30   57.35
   9  -8  -5  168.33   49.54
   9  -8  -4  139.61   55.60
   9  -8  -4   75.57   52.24
   9  -8  -4  110.89   50.49
   9  -8  -4  106.90   50.96
   9  -8  -3  -16.62   51.71
   9  -8  -3   29.28   52.18
   9  -8  -2   56.37   52.07
   9  -8  -1  124.11   53.39
   9  -8   2    6.41   53.98
   9  -8   3  -25.87   55.24
   9  -7  -6   32.06   42.08
   9  -7  -6   13.46   55.47
   9  -7  -5   95.90   53.13
   9  -7  -5  -13.29   48.62
   9  -7  -5   26.98   43.56
   9  -7  -4   83.90   50.39
   9  -7  -4   35.30   47.73
   9  -7  -4   45.88   47.32
   9  -7  -4    8.18   47.64
   9  -7  -3   51.59   48.23
   9  -7  -3   69.46   45.50
   9  -7  -3   18.92   46.81
   9  -7  -2   84.99   51.97
   9  -7  -2   -0.41   49.72
   9  -7  -1   51.35   49.19
   9  -7   0  -17.34   50.54
   9  -7   3   78.20   54.38
   9  -7   4   61.78   54.31
   9  -7   5  114.85   55.96
   9  -6  -7  -18.36   57.13
   9  -6  -6   90.84   55.42
   9  -6  -5  105.43   42.87
   9  -6  -5  119.66   51.33
   9  -6  -4  165.18   50.25
   9  -6  -4  124.42   43.09
   9  -6  -4  123.53   44.02
   9  -6  -3   77.15   47.81
   9  -6  -3   97.59   41.03
   9  -6  -3  124.21   40.95
   9  -6  -3  104.07   44.83
   9  -6  -2  107.65   46.06
   9  -6  -2  173.62   39.84
   9  -6  -2  139.68   49.13
   9  -6  -1  147.07   48.48
   9  -6   0  539.74   58.63
   9  -6   0  611.83   55.19
   9  -6   1  391.19   58.12
   9  -6   1  469.17   54.95
   9  -6   2  314.21   53.23
   9  -6   5  235.99   54.72
   9  -6   6  355.91   58.34
   9  -5  -7  105.24   57.77
   9  -5  -6   81.54   54.49
   9  -5  -5  313.44   54.37
   9  -5  -4  267.94   43.84
   9  -5  -4  280.77   50.03
   9  -5  -3  205.20   47.53
   9  -5  -3  240.32   56.32
   9  -5  -3  169.64   44.11
   9  -5  -2   17.34   41.82
   9  -5  -2   92.24   33.24
   9  -5  -2   72.53   43.47
   9  -5  -2  132.58   32.35
   9  -5  -1  106.21   44.78
   9  -5   0  304.89   48.35
   9  -5   0  278.07   49.56
   9  -5   0  342.63   58.50
   9  -5   1  355.18   51.33
   9  -5   1  269.07   50.75
   9  -5   1  337.43   57.83
   9  -5   2  138.76   47.44
   9  -5   2  156.22   51.44
   9  -5   2  145.29   57.56
   9  -5   3   75.48   48.74
   9  -5   3   98.42   53.50
   9  -5   3  121.14   59.44
   9  -5   6  -60.59   58.76
   9  -5   7  -72.55   60.12
   9  -4  -7    7.66   56.80
   9  -4  -6   33.32   53.70
   9  -4  -5   66.69   51.53
   9  -4  -4  105.20   46.98
   9  -4  -3   12.64   43.80
   9  -4  -3   17.70   41.15
   9  -4  -3  -40.43   52.51
   9  -4  -2   22.55   39.84
   9  -4  -2   13.83   40.79
   9  -4  -1  -50.62   42.85
   9  -4  -1   47.59   24.85
   9  -4   0  -22.46   41.78
   9  -4   0   11.81   40.93
   9  -4   0   -4.65   51.14
   9  -4   1   45.79   41.97
   9  -4   1   13.63   43.74
   9  -4   1   21.35   51.30
   9  -4   2   26.72   45.09
   9  -4   2   -6.37   45.14
   9  -4   2   14.01   51.91
   9  -4   3   42.73   44.98
   9  -4   3   93.92   48.25
   9  -4   3   36.41   54.50
   9  -4   4  -36.05   48.32
   9  -4   4  102.19   50.46
   9  -4   4   46.34   56.32
   9  -4   5  114.61   63.78
   9  -4   5   20.49   53.54
   9  -4   6  293.14   53.61
   9  -4   7  328.91   58.04
   9  -4   8  130.04   58.53
   9  -3  -5  109.18   50.11
   9  -3  -4  189.83   47.60
   9  -3  -3  289.53   46.66
   9  -3  -3  237.25   51.77
   9  -3  -2   31.33   41.76
   9  -3  -2   75.43   38.90
   9  -3  -2   57.92   49.53
   9  -3  -1    9.59   41.07
   9  -3   0  206.99   41.85
   9  -3   0  247.18   43.20
   9  -3   1  693.74   47.49
   9  -3   1  551.76   47.24
   9  -3   1  590.05   56.81
   9  -3   2  302.58   43.25
   9  -3   2  388.53   46.82
   9  -3   2  386.99   52.58
   9  -3   3  244.02   45.89
   9  -3   3  206.47   46.07
   9  -3   3  249.28   51.53
   9  -3   4   78.41   49.58
   9  -3   4  149.78   47.12
   9  -3   4  200.28   54.58
   9  -3   5  203.81   51.86
   9  -3   5  156.26   50.23
   9  -3   5  253.64   58.40
   9  -3   5  263.06   43.29
   9  -3   6  514.19   56.88
   9  -3   6  473.62   58.06
   9  -3   6  396.98   66.99
   9  -3   6  472.70   51.85
   9  -3   7  473.86   56.96
   9  -3   7  544.06   53.71
   9  -3   8  280.11   59.44
   9  -3   8  323.62   54.23
   9  -3   9  243.45   57.73
   9  -3   9  213.05   58.12
   9  -2  -7  155.53   57.28
   9  -2  -4  254.98   48.71
   9  -2  -3  334.83   48.02
   9  -2  -3  337.54   51.74
   9  -2  -2  341.37   51.44
   9  -2  -2  365.58   46.40
   9  -2  -1  126.07   42.45
   9  -2  -1  136.50   48.65
   9  -2   0  130.14   38.51
   9  -2   0  117.58   41.11
   9  -2   1  117.73   38.90
   9  -2   1  171.91   39.91
   9  -2   2  138.34   39.64
   9  -2   2   72.08   41.17
   9  -2   2   75.34   47.15
   9  -2   3   57.56   41.95
   9  -2   3  127.56   41.69
   9  -2   3  121.27   48.07
   9  -2   4  167.24   45.93
   9  -2   4  198.68   50.61
   9  -2   4  162.03   42.73
   9  -2   5   98.45   46.54
   9  -2   5  134.99   40.33
   9  -2   5  133.78   51.36
   9  -2   5  139.08   45.78
   9  -2   6   57.10   47.53
   9  -2   6   47.19   44.96
   9  -2   6  103.56   39.79
   9  -2   6   96.44   48.11
   9  -2   7  181.39   49.56
   9  -2   7  121.35   45.53
   9  -2   7   48.34   50.40
   9  -2   7  163.67   53.48
   9  -2   8  120.42   51.34
   9  -2   8   73.24   47.26
   9  -2   8   53.74   54.27
   9  -2   9  150.48   52.65
   9  -2  10  146.11   53.17
   9  -2  10  114.24   56.62
   9  -1  -6  104.79   51.76
   9  -1  -3   40.61   44.46
   9  -1  -3  -10.50   49.96
   9  -1  -2    9.67   43.18
   9  -1  -2    9.58   47.26
   9  -1  -1   39.57   42.72
   9  -1  -1   38.30   47.43
   9  -1   0   26.43   39.82
   9  -1   0  -37.67   46.59
   9  -1   1   71.21   38.26
   9  -1   1   86.16   41.06
   9  -1   2   81.33   39.50
   9  -1   2  173.50   41.33
   9  -1   3    8.53   42.14
   9  -1   3   93.29   46.24
   9  -1   3   58.78   38.60
   9  -1   4   30.79   42.44
   9  -1   4   87.10   30.22
   9  -1   4   49.09   45.62
   9  -1   4   35.81   39.64
   9  -1   5   49.21   42.41
   9  -1   5   10.32   34.82
   9  -1   5   -3.45   32.90
   9  -1   5   48.51   45.98
   9  -1   5   47.80   41.89
   9  -1   6  202.64   45.12
   9  -1   6  137.46   40.11
   9  -1   6  107.38   41.55
   9  -1   6  195.09   45.55
   9  -1   7  431.27   49.45
   9  -1   7  278.42   48.75
   9  -1   7  258.28   47.21
   9  -1   7  266.73   45.03
   9  -1   8  169.51   51.68
   9  -1   8  234.54   48.12
   9  -1   8  197.17   50.17
   9  -1   9   50.10   65.10
   9  -1   9  130.28   51.89
   9  -1   9   74.90   52.94
   9  -1  10  125.96   53.46
   9   0  -6   12.51   50.76
   9   0  -5   -0.72   47.88
   9   0  -3  250.99   53.47
   9   0  -2  245.11   44.05
   9   0  -2  286.73   51.31
   9   0  -1   89.07   41.24
   9   0  -1  112.83   47.27
   9   0   0   66.95   40.50
   9   0   0   90.06   46.02
   9   0   1  207.35   41.40
   9   0   1  234.65   50.07
   9   0   2  942.10   53.33
   9   0   3  406.68   47.19
   9   0   3  363.89   41.08
   9   0   4  258.47   43.32
   9   0   4  146.76   28.32
   9   0   4  208.39   26.81
   9   0   4  172.13   30.56
   9   0   4  179.47   30.52
   9   0   4  257.99   46.50
   9   0   4  255.65   40.19
   9   0   5  537.96   45.23
   9   0   5  398.82   36.09
   9   0   5  299.21   40.80
   9   0   5  424.89   37.98
   9   0   5  396.03   43.23
   9   0   6  510.09   45.51
   9   0   6  321.92   40.06
   9   0   6  405.41   45.32
   9   0   6  371.05   42.15
   9   0   7  629.56   49.60
   9   0   7  703.62   52.59
   9   0   7  672.09   49.11
   9   0   8  357.36   48.16
   9   0   8  425.58   50.76
   9   0   8  433.00   49.67
   9   0   9  348.03   62.09
   9   0   9  317.08   52.58
   9   0   9  330.79   54.42
   9   0  10  296.41   66.99
   9   0  10  314.04   55.83
   9   0  10  291.63   57.69
   9   1  -5   17.02   47.97
   9   1  -4  174.08   46.46
   9   1  -3  275.18   45.80
   9   1  -2  276.60   52.59
   9   1  -1  201.66   50.45
   9   1  -1  179.72   42.64
   9   1   0  187.31   49.99
   9   1   0  182.14   42.44
   9   1   1  294.70   48.18
   9   1   1  416.34   43.30
   9   1   2  571.49   48.48
   9   1   2  517.40   51.47
   9   1   3  486.64   48.17
   9   1   4  -38.82   42.86
   9   1   4    9.01   23.11
   9   1   4    5.17   23.87
   9   1   5  373.50   33.71
   9   1   5  312.62   33.92
   9   1   5  428.58   43.98
   9   1   5  327.73   36.72
   9   1   6  365.19   44.98
   9   1   6  478.33   45.41
   9   1   6  472.10   39.10
   9   1   6  377.89   41.17
   9   1   7   38.64   45.68
   9   1   7  122.14   38.58
   9   1   7  103.44   41.49
   9   1   7   84.34   45.97
   9   1   8  138.47   43.04
   9   1   8   80.18   45.28
   9   1   8  142.42   48.88
   9   1   9  236.59   49.78
   9   1   9  211.90   48.85
   9   1   9  283.09   53.56
   9   1  10  338.79   55.10
   9   1  10  268.84   58.80
   9   1  11  132.62   62.66
   9   2  -5  104.08   46.30
   9   2  -4   81.12   44.14
   9   2  -3   35.26   43.12
   9   2  -2   -0.55   40.91
   9   2  -2   -9.26   53.93
   9   2  -1   16.78   50.26
   9   2   0  167.48   49.33
   9   2   1  149.12   39.87
   9   2   1  107.31   46.42
   9   2   2   61.38   47.22
   9   2   3   60.11   44.48
   9   2   4   55.28   41.29
   9   2   4   47.19   22.70
   9   2   5   70.48   41.36
   9   2   5  -13.63   27.90
   9   2   6   24.32   32.30
   9   2   6   29.57   34.49
   9   2   7  287.18   42.92
   9   2   7  279.67   39.22
   9   2   7  261.00   43.48
   9   2   7  317.10   44.39
   9   2   8  345.91   50.07
   9   2   8  411.38   48.16
   9   2   8  411.46   46.41
   9   2   9  236.25   46.98
   9   2   9  246.23   57.50
   9   2   9  296.24   47.67
   9   2  10  213.81   51.14
   9   2  10  129.37   62.85
   9   2  10  177.97   51.87
   9   2  11  291.85   55.74
   9   2  12  123.89   60.77
   9   3  -4   19.40   43.27
   9   3  -3   59.83   41.30
   9   3  -2  191.77   41.15
   9   3  -1  188.47   41.58
   9   3  -1  348.62   58.18
   9   3   0  224.52   53.14
   9   3   1  397.37   52.05
   9   3   2  119.11   44.45
   9   3   3  579.22   48.93
   9   3   3  210.36   19.78
   9   3   4  418.42   46.05
   9   3   4  211.58   24.31
   9   3   5  687.43   48.31
   9   3   5  493.66   33.36
   9   3   6  784.12   40.81
   9   3   7  698.13   43.90
   9   3   7  692.57   42.96
   9   3   8 1131.26   55.95
   9   3   8  972.97   55.89
   9   3   8 1118.57   54.39
   9   3   9  928.36   56.59
   9   3   9  784.05   56.81
   9   3   9  928.44   51.89
   9   3  10  944.80   60.25
   9   3  10  799.92   65.03
   9   3  10  869.63   52.53
   9   3  11  662.12   60.85
   9   3  11  680.27   52.81
   9   3  12  715.24   56.79
   9   4  -3  284.56   41.38
   9   4  -2  204.57   40.60
   9   4  -1  429.07   43.29
   9   4  -1  312.96   28.97
   9   4   0  368.56   42.64
   9   4   0  226.78   25.39
   9   4   1  742.63   46.12
   9   4   1  353.87   26.40
   9   4   2  502.83   27.25
   9   4   2  607.80   28.59
   9   4   4  618.14   49.93
   9   4   5  271.62   45.19
   9   4   6  960.57   49.91
   9   4   6  929.70   43.30
   9   4   7  821.13   47.67
   9   4   7  867.08   46.21
   9   4   8  295.99   44.91
   9   4   9  132.77   43.97
   9   4   9   79.11   46.80
   9   4  10  193.94   53.35
   9   4  10  233.92   51.10
   9   4  10  196.31   41.23
   9   4  11  141.68   58.59
   9   4  11  174.23   54.10
   9   4  11  147.90   41.62
   9   4  12   90.89   42.66
   9   5  -2  179.53   37.38
   9   5  -2  139.81   36.50
   9   5  -1   99.91   36.50
   9   5  -1  107.52   33.93
   9   5   0  128.24   39.59
   9   5   0  127.58   32.30
   9   5   1  309.22   41.02
   9   5   1  230.15   32.73
   9   5   2  228.72   45.01
   9   5   2  126.43   32.91
   9   5   2  176.92   28.20
   9   5   3   86.19   31.62
   9   5   4   89.80   45.37
   9   5   5   54.15   43.19
   9   5   6   54.27   41.19
   9   5   8  153.57   44.33
   9   5   8  127.03   37.42
   9   5   9  188.48   47.13
   9   5   9  138.54   36.75
   9   5  10  223.98   49.81
   9   5  11  148.71   52.49
   9   5  11  160.90   53.29
   9   6  -1   56.19   33.64
   9   6  -1   62.07   40.87
   9   6   0   73.48   35.81
   9   6   0   90.29   39.21
   9   6   1  140.70   39.59
   9   6   1  192.16   39.69
   9   6   2  294.89   43.99
   9   6   2  220.10   40.61
   9   6   2  303.69   35.50
   9   6   3  382.25   49.00
   9   6   3  371.69   40.53
   9   6   3  388.97   56.56
   9   6   4  656.05   50.43
   9   6   4  543.48   53.76
   9   6   5  597.24   50.09
   9   6   6  739.01   49.23
   9   6   7 1031.02   49.49
   9   6   8  641.44   41.92
   9   6   9  210.40   34.04
   9   6  10  328.79   33.06
   9   6  10  377.47   54.00
   9   6  11  609.07   35.23
   9   6  11  722.03   60.72
   9   6  12  446.66   32.69
   9   7   0  313.49   65.18
   9   7   0  192.39   33.26
   9   7   0  198.02   47.22
   9   7   1  619.87   43.30
   9   7   1  576.17   47.79
   9   7   1  646.89   66.59
   9   7   1  629.10   51.27
   9   7   2  949.53   48.30
   9   7   2  827.77   48.89
   9   7   2  798.49   54.45
   9   7   2  919.20   68.22
   9   7   3  742.20   52.60
   9   7   3  652.82   49.91
   9   7   3  674.99   63.96
   9   7   4  306.26   58.68
   9   7   4  374.53   48.43
   9   7   5  328.29   58.40
   9   7   5  428.88   48.41
   9   7  11   82.33   53.76
   9   8   1  160.09   64.34
   9   8   1   66.18   32.05
   9   8   1   67.06   51.40
   9   8   1   56.31   47.12
   9   8   2  162.56   62.84
   9   8   2  189.14   38.05
   9   8   2  167.83   45.80
   9   8   2  146.00   51.33
   9   8   3  -43.87   61.03
   9   8   3   -9.82   42.85
   9   8   3   -5.61   47.45
   9   8   3   90.35   40.69
   9   8   4  -16.89   45.65
   9   8   4   27.33   43.04
   9   8   4  -22.21   60.75
   9   8   5   25.33   58.35
   9   8   5   89.23   46.63
   9   8   8   64.92   59.15
   9   8   9  100.95   58.17
   9   9   3  519.93   41.96
   9   9   3  458.93   51.18
   9   9   3  447.06   69.12
   9   9   3  401.03   58.22
   9   9   4  322.64   66.98
   9   9   4  281.98   47.82
   9   9   4  331.67   53.94
   9   9   5  186.97   47.64
   9   9   5  148.10   63.10
   9   9   9  185.28   64.44
   9   9  10  108.76   64.69
   9   9  11   79.85   60.46
   9  10   5  138.43   47.44
   9  10   5  140.44   68.38
   9  10   5  163.94   54.80
   9  10   8  427.06   69.49
   9  10   9   91.07   67.19
  10  -8  -3  141.25   48.93
  10  -8  -3  114.09   57.71
  10  -8  -3  147.39   51.40
  10  -8  -2   38.04   56.21
  10  -8  -1  107.35   58.39
  10  -7  -4   78.65   55.38
  10  -7  -4   29.81   43.83
  10  -7  -4   45.54   48.25
  10  -7  -3  132.45   54.95
  10  -7  -3  102.50   45.58
  10  -7  -3  115.67   44.30
  10  -7  -3   93.41   49.80
  10  -7  -2   31.07   53.31
  10  -7  -2   48.55   43.33
  10  -7  -1   81.97   53.89
  10  -7   0  123.77   54.93
  10  -7   3   17.11   58.40
  10  -6  -5    6.15   44.39
  10  -6  -5   23.97   54.79
  10  -6  -4   34.45   46.59
  10  -6  -4    6.57   51.70
  10  -6  -3   63.28   50.80
  10  -6  -3   25.21   36.93
  10  -6  -3  -21.11   46.95
  10  -6  -2    5.30   49.57
  10  -6  -2    7.55   38.05
  10  -6  -2    2.29   48.27
  10  -6  -2   50.55   36.61
  10  -6  -1   51.34   50.22
  10  -6   0   68.08   53.35
  10  -6   1   36.49   52.56
  10  -6   5  244.32   59.58
  10  -5  -5   48.28   56.53
  10  -5  -4  159.57   45.50
  10  -5  -4   92.73   52.98
  10  -5  -3  104.09   45.55
  10  -5  -3  113.85   50.60
  10  -5  -2   93.84   45.79
  10  -5  -2   15.57   48.74
  10  -5  -1   98.03   49.95
  10  -5   0  192.94   51.24
  10  -5   1  203.30   53.33
  10  -5   1  314.45   54.40
  10  -5   2  147.26   54.02
  10  -5   3   98.93   52.90
  10  -5   4  218.32   55.49
  10  -5   6  476.10   64.29
  10  -4  -5   65.39   55.07
  10  -4  -4  255.43   53.64
  10  -4  -3  173.03   50.98
  10  -4  -2   62.81   43.55
  10  -4  -2   76.62   46.47
  10  -4  -1   74.38   48.36
  10  -4   0  113.38   47.19
  10  -4   1  215.02   50.10
  10  -4   1  195.26   47.95
  10  -4   1  220.50   58.83
  10  -4   2  148.97   49.80
  10  -4   2  184.50   50.72
  10  -4   3    4.03   49.32
  10  -4   4   28.99   52.85
  10  -4   5  -29.94   56.55
  10  -4   7   49.06   53.63
  10  -3  -5   59.18   53.49
  10  -3  -4   65.51   51.17
  10  -3  -3   28.10   48.63
  10  -3  -2   -2.34   47.00
  10  -3  -1  -14.16   46.88
  10  -3  -1  -34.25   55.36
  10  -3   0  -48.45   46.60
  10  -3   1   46.51   44.84
  10  -3   1   24.31   46.59
  10  -3   2   18.13   43.83
  10  -3   2   -9.44   44.06
  10  -3   2   35.26   53.98
  10  -3   3   27.60   45.41
  10  -3   3   44.58   46.35
  10  -3   3  -35.88   54.14
  10  -3   4  -70.70   52.25
  10  -3   4   85.19   49.31
  10  -3   4   27.02   54.99
  10  -3   5   -1.75   55.13
  10  -3   6  276.92   50.19
  10  -3   6  242.59   59.12
  10  -3   7  223.56   54.47
  10  -3   8  119.26   56.68
  10  -3   8  161.01   52.45
  10  -2  -4   38.61   50.69
  10  -2  -3  111.84   49.46
  10  -2  -2   66.45   48.08
  10  -2  -1   89.58   46.11
  10  -2  -1  117.25   53.52
  10  -2   0  124.35   46.70
  10  -2   0  147.78   54.23
  10  -2   1  285.95   44.83
  10  -2   1  371.62   47.61
  10  -2   2  428.54   48.59
  10  -2   2  481.38   49.52
  10  -2   3  202.92   48.13
  10  -2   3  173.30   45.78
  10  -2   3  203.94   54.46
  10  -2   4  138.08   50.52
  10  -2   4  135.03   47.35
  10  -2   4   94.24   52.30
  10  -2   5  138.35   53.30
  10  -2   5  123.57   48.96
  10  -2   5  190.13   55.78
  10  -2   5  201.52   40.03
  10  -2   6  334.37   47.10
  10  -2   6  413.56   57.57
  10  -2   7  518.31   55.20
  10  -2   7  627.41   61.52
  10  -2   7  589.73   52.94
  10  -2   8  283.46   57.74
  10  -2   8  154.94   54.98
  10  -2   8  297.56   51.75
  10  -2   9  139.19   54.48
  10  -1  -5   43.62   54.48
  10  -1  -2  183.22   48.60
  10  -1  -1  236.65   47.92
  10  -1  -1  245.27   54.91
  10  -1   0  258.32   48.07
  10  -1   0  252.91   54.38
  10  -1   1  177.09   45.68
  10  -1   1  155.46   54.37
  10  -1   2  321.57   47.20
  10  -1   2  242.16   44.95
  10  -1   3  317.19   48.79
  10  -1   3  170.92   21.88
  10  -1   3  298.02   45.66
  10  -1   4  101.89   48.26
  10  -1   4   86.95   36.21
  10  -1   4  134.72   51.62
  10  -1   4  185.54   44.15
  10  -1   5   55.46   47.25
  10  -1   5  129.21   36.14
  10  -1   5   78.07   44.97
  10  -1   6  149.79   48.76
  10  -1   6   79.22   40.17
  10  -1   6   50.28   38.78
  10  -1   6   66.08   46.94
  10  -1   7  111.04   51.30
  10  -1   7   11.20   41.58
  10  -1   7  -48.52   47.08
  10  -1   8  103.10   59.89
  10  -1   8  103.74   53.33
  10  -1   8   43.47   46.78
  10  -1   8   -1.95   50.93
  10  -1   9  120.08   53.26
  10  -1   9    3.34   53.18
  10  -1   9   55.08   51.15
  10  -1  10  124.91   55.92
  10   0  -5   35.31   54.20
  10   0  -4  144.75   50.94
  10   0  -1   16.84   54.00
  10   0  -1   65.16   47.29
  10   0   0   70.09   51.62
  10   0   0   48.54   45.84
  10   0   1   47.49   51.10
  10   0   1   17.54   43.67
  10   0   2   36.60   50.01
  10   0   2   41.79   44.60
  10   0   3    6.84   49.38
  10   0   4   31.91   48.20
  10   0   4   21.25   24.78
  10   0   4   76.24   41.38
  10   0   5   53.19   48.24
  10   0   5   19.71   32.71
  10   0   5   85.63   29.39
  10   0   5    9.27   35.52
  10   0   5   18.21   35.49
  10   0   5    9.11   41.31
  10   0   6   52.07   44.80
  10   0   6   -2.32   36.01
  10   0   6  -49.85   38.57
  10   0   6    0.23   43.00
  10   0   6   41.83   43.29
  10   0   7  310.34   48.29
  10   0   7  140.93   44.16
  10   0   7  158.74   41.39
  10   0   7  158.32   53.65
  10   0   7  157.84   47.72
  10   0   8  272.85   67.16
  10   0   8  384.96   57.16
  10   0   8  452.40   52.42
  10   0   8  278.09   48.74
  10   0   8  247.78   48.32
  10   0   9  138.27   64.37
  10   0   9  138.17   57.68
  10   0   9  123.60   48.99
  10   0   9  107.72   48.86
  10   0  10  -35.28   69.25
  10   0  10   93.01   53.18
  10   0  10   20.07   52.97
  10   1  -4   -4.70   47.40
  10   1  -3   37.91   48.15
  10   1   0   91.17   54.17
  10   1   0   62.73   45.84
  10   1   1  155.39   53.78
  10   1   1  161.05   46.54
  10   1   2  332.38   55.62
  10   1   2  375.08   50.41
  10   1   3  406.57   53.38
  10   1   4  327.10   52.13
  10   1   4  136.10   22.99
  10   1   5  103.98   28.43
  10   1   5   75.39   29.96
  10   1   6  166.48   38.44
  10   1   6  310.33   47.57
  10   1   6  209.01   39.37
  10   1   6  207.81   36.75
  10   1   6  153.31   35.05
  10   1   7  557.66   49.44
  10   1   7  385.07   47.59
  10   1   7  382.76   49.50
  10   1   7  364.62   55.43
  10   1   7  395.11   43.66
  10   1   7  401.70   49.93
  10   1   8  451.90   55.54
  10   1   8  510.88   56.08
  10   1   8  527.63   54.08
  10   1   8  501.04   48.61
  10   1   9  300.45   61.82
  10   1   9  359.64   62.80
  10   1   9  344.37   54.43
  10   1   9  371.66   51.79
  10   1  10  267.23   54.38
  10   1  10  171.93   68.46
  10   1  10  203.08   66.58
  10   1  10  239.38   57.65
  10   1  11  220.92   75.01
  10   1  11  407.63   63.48
  10   2  -4  120.49   47.55
  10   2  -3  192.62   46.09
  10   2  -2  278.86   47.42
  10   2  -1  296.71   48.24
  10   2   0  366.12   58.55
  10   2   1  292.14   56.66
  10   2   2  225.53   47.59
  10   2   3  141.99   50.08
  10   2   4  376.02   53.29
  10   2   4  118.21   20.50
  10   2   5  454.04   50.95
  10   2   5  253.51   29.76
  10   2   6  347.35   49.19
  10   2   6  141.23   33.87
  10   2   7  131.93   40.21
  10   2   7  115.21   38.17
  10   2   8   90.50   48.71
  10   2   8  140.54   42.49
  10   2   8  101.05   47.33
  10   2   8  130.28   50.86
  10   2   9  269.21   56.39
  10   2   9  316.90   49.23
  10   2   9  262.81   55.85
  10   2   9  338.57   51.09
  10   2  10  296.07   63.62
  10   2  10  318.21   52.96
  10   2  10  301.83   63.07
  10   2  10  358.68   52.48
  10   2  11  222.27   55.57
  10   2  11  194.60   66.40
  10   3  -3  113.90   44.35
  10   3  -2   69.76   43.28
  10   3  -1   63.47   44.96
  10   3   0  105.01   45.55
  10   3   3   37.64   49.82
  10   3   4   68.52   48.90
  10   3   4   -4.52   20.76
  10   3   5  134.41   47.43
  10   3   5   67.35   26.87
  10   3   5   77.58   46.08
  10   3   6   42.26   31.58
  10   3   6   58.86   46.22
  10   3   7   28.42   34.81
  10   3   8  105.19   41.13
  10   3   8  100.20   44.40
  10   3   9   53.76   44.77
  10   3   9   46.59   50.23
  10   3   9   36.95   45.20
  10   3   9   13.17   51.82
  10   3  10   -2.47   49.51
  10   3  10   22.96   53.48
  10   3  10    2.00   47.00
  10   3  10   37.31   56.11
  10   3  11   60.26   52.42
  10   3  11   23.72   49.88
  10   3  11   97.69   63.02
  10   3  12  326.06   55.41
  10   3  12  262.03   71.23
  10   4  -2   57.64   41.10
  10   4  -1  173.55   43.14
  10   4   0  103.35   45.63
  10   4   1   98.87   45.34
  10   4   3   41.38   17.76
  10   4   3   20.63   20.54
  10   4   3   48.56   18.53
  10   4   4  464.82   52.38
  10   4   4  173.16   24.56
  10   4   5  409.72   52.18
  10   4   5  525.17   54.44
  10   4   5  298.77   30.40
  10   4   6  484.04   49.41
  10   4   6  587.54   51.69
  10   4   6  375.36   35.49
  10   4   7  239.29   37.64
  10   4   7  227.07   46.96
  10   4   8  220.82   45.00
  10   4   8  250.73   43.20
  10   4   9  499.76   50.66
  10   4  10  453.29   52.94
  10   4  10  425.83   56.94
  10   4  11  485.20   58.97
  10   4  12  670.68   52.89
  10   4  12  630.65   69.21
  10   5  -1  251.03   42.25
  10   5  -1  148.80   29.77
  10   5   0  398.21   46.80
  10   5   0  210.48   28.48
  10   5   1  463.75   48.73
  10   5   1  210.78   27.65
  10   5   2  506.11   61.18
  10   5   2  482.20   50.00
  10   5   3  402.96   57.58
  10   5   3  443.63   56.19
  10   5   3  205.64   27.92
  10   5   3  198.90   31.20
  10   5   4  436.79   54.14
  10   5   5  397.66   51.50
  10   5   6  713.82   52.69
  10   5   6  687.06   42.32
  10   5   7  681.44   50.35
  10   5   7  673.86   45.78
  10   5   8  214.51   43.76
  10   5   8  192.90   41.85
  10   5   9   96.33   44.86
  10   5   9   64.88   40.03
  10   5  10  151.24   40.78
  10   5  10  174.19   50.16
  10   5  11  179.42   55.22
  10   6   0   36.65   38.95
  10   6   0   98.68   35.20
  10   6   1  297.33   45.58
  10   6   1  174.19   35.29
  10   6   2  178.33   36.27
  10   6   2  107.20   33.03
  10   6   3   -8.66   49.84
  10   6   3   44.86   36.28
  10   6   3   64.30   32.88
  10   6   4   49.35   51.55
  10   6   4   20.52   50.83
  10   6   4   69.57   34.94
  10   6   5   72.47   50.09
  10   6   5   21.53   49.07
  10   6   6  105.82   46.28
  10   6   7   37.14   42.64
  10   6   8   67.07   43.88
  10   6   8   51.70   40.90
  10   6   9  219.24   48.17
  10   6   9  101.15   38.29
  10   6  10  114.33   49.33
  10   6  10   56.86   35.86
  10   6  11  148.91   54.58
  10   6  11  116.01   34.60
  10   6  12  180.09   34.74
  10   7   1   14.57   39.17
  10   7   1   50.50   41.57
  10   7   2  105.89   43.87
  10   7   2   73.72   39.03
  10   7   3  107.54   47.68
  10   7   3  121.17   43.40
  10   7   3  152.40   37.90
  10   7   4  336.27   54.47
  10   7   4  262.67   43.29
  10   7   5  454.69   54.65
  10   7   6  631.61   56.66
  10   7   7  791.41   52.32
  10   7   8  528.91   46.77
  10   7   9  333.82   40.48
  10   7  10  269.38   36.37
  10   7  10  285.64   54.18
  10   7  11  380.49   32.80
  10   8   3  944.30   53.89
  10   8   3  708.82   50.97
  10   8   3  933.86   74.27
  10   8   3  717.52   58.54
  10   8   4  338.69   66.55
  10   8   4  268.29   54.45
  10   8   4  283.04   50.91
  10   8   5  272.79   53.40
  10   8   5  212.32   63.43
  10   8   6  373.35   53.61
  10   9   5    4.85   52.20
  10   9   5   52.60   49.45
  10   9   5   45.16   65.29
  10   9   6  198.43   54.42
  10   9   8    6.57   65.36
  10   9   9    4.69   65.28
  11  -6  -3   32.19   55.47
  11  -6  -2   63.00   55.07
  11  -6  -1  145.94   34.54
  11  -6  -1  121.36   35.51
  11  -6  -1   96.95   55.87
  11  -6   0  204.73   58.76
  11  -6   1  267.54   61.66
  11  -6   2    6.63   60.06
  11  -5  -3   -1.35   47.16
  11  -5  -3   51.34   54.42
  11  -5  -2   22.95   53.53
  11  -5  -1   16.14   53.01
  11  -5   0   79.62   28.97
  11  -5   0   53.19   54.54
  11  -5   1   47.99   56.03
  11  -5   2   31.95   57.53
  11  -5   3   44.29   58.07
  11  -5   4   47.67   58.01
  11  -4  -4   88.09   55.96
  11  -4  -3  128.66   56.49
  11  -4  -2  134.58   49.14
  11  -4  -2   83.74   53.57
  11  -4  -1  142.33   47.90
  11  -4  -1   87.14   53.12
  11  -4   0  162.75   54.41
  11  -4   1  273.76   56.75
  11  -4   2  239.43   56.37
  11  -4   3  190.55   55.95
  11  -4   4  120.68   57.53
  11  -4   5  204.77   60.78
  11  -3  -4  262.04   58.43
  11  -3  -3  289.54   58.49
  11  -3  -2   92.70   52.75
  11  -3  -1   83.23   54.19
  11  -3   0  106.09   51.93
  11  -3   1  206.35   54.49
  11  -3   2  188.53   53.28
  11  -3   3   -8.39   51.58
  11  -3   4   34.98   53.10
  11  -3   5   66.89   59.03
  11  -3   6  114.14   61.87
  11  -3   7  154.00   50.64
  11  -3   7   18.11   62.54
  11  -2  -3  119.82   53.50
  11  -2  -2    9.40   51.14
  11  -2  -1  -17.88   52.86
  11  -2   0   21.84   52.24
  11  -2   1   25.34   51.18
  11  -2   2   22.23   46.38
  11  -2   2   -3.43   50.00
  11  -2   3   17.02   24.61
  11  -2   3  -10.77   23.65
  11  -2   3   41.73   50.02
  11  -2   4  -62.55   55.10
  11  -2   6  105.16   43.13
  11  -2   6   54.24   59.91
  11  -2   7  137.35   48.22
  11  -2   7   80.45   60.43
  11  -2   8   74.13   52.72
  11  -2   8  118.14   50.31
  11  -2   8  133.60   62.32
  11  -1  -2   27.71   50.98
  11  -1  -1  -10.59   50.82
  11  -1   0   79.94   52.60
  11  -1   1  195.76   52.33
  11  -1   2  429.07   55.05
  11  -1   3  333.00   49.76
  11  -1   3  388.88   54.76
  11  -1   4   77.91   54.20
  11  -1   4  125.07   27.96
  11  -1   4  110.65   26.96
  11  -1   5   73.07   53.86
  11  -1   5   64.09   39.90
  11  -1   5   46.22   37.88
  11  -1   6  232.26   57.29
  11  -1   6  150.09   50.69
  11  -1   6  218.11   41.20
  11  -1   7  508.81   60.76
  11  -1   7  384.17   50.84
  11  -1   7  408.99   46.63
  11  -1   8  306.08   60.95
  11  -1   8  193.21   53.29
  11  -1   8  245.13   48.78
  11  -1   9  163.86   58.26
  11  -1   9  106.20   51.46
  11  -1   9   92.66   55.09
  11   0  -3  276.13   56.32
  11   0   0  107.19   51.42
  11   0   1  168.15   53.65
  11   0   2  180.34   58.98
  11   0   2  207.50   51.12
  11   0   3  242.89   54.67
  11   0   4   85.10   53.31
  11   0   5   73.61   53.71
  11   0   5  120.13   30.06
  11   0   5   75.73   30.51
  11   0   6  220.19   55.87
  11   0   6  118.89   43.56
  11   0   6  131.63   38.17
  11   0   6  184.21   35.57
  11   0   6   93.13   40.35
  11   0   7  183.95   53.83
  11   0   7   25.45   50.05
  11   0   7  127.29   56.36
  11   0   7   53.32   40.30
  11   0   7   87.86   43.41
  11   0   7   39.94   50.71
  11   0   8  102.53   52.74
  11   0   8  -39.77   59.12
  11   0   8    0.82   43.75
  11   0   8  -13.15   47.26
  11   0   8  -29.22   56.50
  11   0   9   67.60   55.04
  11   0   9   10.32   66.28
  11   0   9   -2.52   50.12
  11   0   9   53.93   47.80
  11   0  10  153.51   57.46
  11   0  10   84.08   73.29
  11   0  10   93.56   53.54
  11   1  -3   71.33   51.61
  11   1  -2   58.66   49.18
  11   1   1   22.03   50.07
  11   1   2   78.40   51.97
  11   1   3  -74.60   53.69
  11   1   4    8.76   53.93
  11   1   5   -2.63   54.54
  11   1   5   33.08   26.73
  11   1   6   68.06   50.28
  11   1   6  -10.82   32.59
  11   1   6   51.48   33.93
  11   1   6  -19.14   35.65
  11   1   7  102.06   51.29
  11   1   7   78.88   43.52
  11   1   7   48.41   51.97
  11   1   7   45.21   41.96
  11   1   7   53.86   39.26
  11   1   7   10.59   39.20
  11   1   8  338.35   53.20
  11   1   8  183.64   53.34
  11   1   8  215.88   56.42
  11   1   8  145.47   52.12
  11   1   8  175.17   45.78
  11   1   8  125.96   44.25
  11   1   9  232.35   53.91
  11   1   9  165.62   59.58
  11   1   9  247.83   56.88
  11   1   9  120.71   47.41
  11   1   9  175.40   49.09
  11   1   9  167.22   57.43
  11   1  10   62.80   66.76
  11   1  10   77.68   50.89
  11   1  10  111.83   52.77
  11   2  -2  231.15   51.37
  11   2  -1  159.36   51.43
  11   2   2  307.51   53.97
  11   2   3  432.82   57.57
  11   2   4  105.38   58.01
  11   2   5  213.10   56.09
  11   2   5  171.61   54.91
  11   2   5   54.65   25.44
  11   2   5   76.21   24.23
  11   2   6  431.10   55.04
  11   2   6  167.79   33.96
  11   2   7  378.37   42.01
  11   2   7  613.92   56.71
  11   2   8  715.70   56.78
  11   2   8  528.90   48.34
  11   2   8  528.36   51.56
  11   2   9  285.16   58.58
  11   2   9  323.84   54.96
  11   2   9  242.75   52.82
  11   2   9  258.33   48.43
  11   2  10  221.00   62.76
  11   2  10  167.49   53.45
  11   2  10  169.24   59.19
  11   2  10  156.05   50.90
  11   3  -1  385.12   51.82
  11   3   0  227.71   51.94
  11   3   1  217.52   53.67
  11   3   4  255.93   56.23
  11   3   4  255.02   59.49
  11   3   5  205.11   53.90
  11   3   5  122.78   25.15
  11   3   6  591.36   58.22
  11   3   6  446.16   54.95
  11   3   7  414.39   54.11
  11   3   7  304.41   53.02
  11   3   8  179.90   41.98
  11   3   9  153.69   47.44
  11   3   9  136.49   46.68
  11   3  10  191.08   53.24
  11   3  10  164.95   51.02
  11   3  11  295.86   53.95
  11   3  11  294.84   64.11
  11   4   0  154.95   49.06
  11   4   1  142.38   52.05
  11   4   2  115.35   49.53
  11   4   3   18.77   57.01
  11   4   4   68.94   55.70
  11   4   5   88.05   57.15
  11   4   5  129.46   54.50
  11   4   5   33.61   25.19
  11   4   6  208.78   53.43
  11   4   6  101.97   51.47
  11   4   6   66.95   30.59
  11   4   7  201.29   52.06
  11   4   7  122.14   50.20
  11   4   7   50.35   35.05
  11   4   8  -16.43   47.81
  11   4   8   -0.35   39.83
  11   4   9  107.99   48.37
  11   4   9  123.12   45.39
  11   4  10  161.33   50.02
  11   4  11   36.37   52.90
  11   5   1   62.90   48.82
  11   5   2   91.86   49.73
  11   5   3  203.89   56.54
  11   5   3  185.57   60.02
  11   5   3   22.26   12.48
  11   5   4  433.37   64.23
  11   5   4  436.52   59.12
  11   5   4  131.71   24.40
  11   5   4  115.27   28.61
  11   5   5  427.12   57.41
  11   5   5  192.85   29.74
  11   5   6  285.22   54.01
  11   5   6  201.13   34.11
  11   5   7  384.35   55.85
  11   5   7  235.91   51.19
  11   5   7  238.67   39.43
  11   5   8  366.92   48.26
  11   5   8  342.04   44.57
  11   5   9  384.64   47.71
  11   5   9  412.41   50.17
  11   5  10  406.56   47.27
  11   5  10  491.32   54.99
  11   5  11  401.28   47.32
  11   5  11  388.07   57.22
  11   6   2  178.17   28.31
  11   6   2  475.15   52.70
  11   6   3  262.45   32.19
  11   6   3  677.79   58.27
  11   6   4  349.55   62.45
  11   6   4  372.65   59.81
  11   6   4  215.50   32.08
  11   6   4  177.26   36.38
  11   6   5  327.04   56.54
  11   6   5  363.84   61.58
  11   6   6  823.41   62.72
  11   6   6  560.51   56.97
  11   6   7  556.46   52.82
  11   6   7  550.49   45.43
  11   6   8  276.29   46.76
  11   6   8  307.19   46.70
  11   6   9   93.08   43.05
  11   6   9  112.63   46.59
  11   6  10  103.78   42.95
  11   6  10  104.10   50.48
  11   7   4  -45.86   40.80
  11   7   4   46.53   35.37
  11   7   5   62.01   39.59
  11   7   5   11.29   57.75
  11   7   6  274.87   58.48
  11   7   7   52.40   48.79
  11   7   7  143.42   54.97
  11   7   8   33.10   45.25
  11   7   9   96.98   42.98
  11   7   9   93.79   49.60
  11   7  10   99.47   39.04
  11   7  10  108.05   52.10
  11   8   7  470.00   60.34
  12  -5   1  120.09   60.61
  12  -5   2  103.76   61.74
  12  -4  -1    1.03   56.04
  12  -4   0   31.47   58.54
  12  -4   1   51.42   59.32
  12  -4   2  -18.23   60.43
  12  -4   3   41.55   60.64
  12  -4   4   20.70   61.54
  12  -3  -1   60.83   57.63
  12  -3   0   97.05   58.92
  12  -3   1  240.78   60.57
  12  -3   2  235.39   60.11
  12  -3   3   87.46   27.65
  12  -3   3  138.64   57.94
  12  -3   4  202.08   59.26
  12  -3   5  197.87   61.81
  12  -3   6  164.45   65.65
  12  -2  -2   83.89   58.17
  12  -2  -1  130.25   57.39
  12  -2   0  123.93   58.75
  12  -2   1  216.16   61.44
  12  -2   2  354.14   60.79
  12  -2   3  165.00   57.49
  12  -2   4   68.68   56.10
  12  -2   4   65.58   29.33
  12  -2   4   55.38   27.63
  12  -2   5   71.77   42.96
  12  -2   5  -55.05   60.11
  12  -2   6   87.97   52.01
  12  -2   6   35.45   63.86
  12  -2   7  101.96   45.20
  12  -2   7  121.57   66.10
  12  -1  -1   -0.48   57.31
  12  -1   0   33.99   56.87
  12  -1   1   47.50   57.69
  12  -1   2   -2.41   56.40
  12  -1   3   63.64   55.84
  12  -1   4  -61.80   57.32
  12  -1   5   48.26   32.61
  12  -1   5   40.53   30.48
  12  -1   6  -31.57   61.34
  12  -1   6   13.44   44.35
  12  -1   6   15.00   41.24
  12  -1   7  164.16   62.45
  12  -1   7   92.95   54.62
  12  -1   7   93.48   43.15
  12  -1   7   61.24   52.18
  12  -1   8  207.70   63.08
  12  -1   8   77.18   65.64
  12  -1   8  100.88   49.60
  12  -1   8  122.08   46.28
  12   0   1   84.57   58.07
  12   0   2  260.60   59.10
  12   0   3  244.55   58.52
  12   0   4  148.29   60.40
  12   0   5   32.71   59.53
  12   0   6   78.11   60.27
  12   0   6  156.71   34.49
  12   0   6  131.67   34.80
  12   0   7  474.19   64.71
  12   0   7  270.25   47.45
  12   0   7  375.93   41.46
  12   0   7  255.87   43.57
  12   0   7  292.40   45.52
  12   0   8  416.90   63.34
  12   0   8  307.27   59.61
  12   0   8  267.39   49.91
  12   0   8  329.51   46.92
  12   0   8  278.69   56.11
  12   1  -1  305.22   58.82
  12   1   2  305.10   59.13
  12   1   3  222.12   58.60
  12   1   4   98.86   59.64
  12   1   5   98.80   60.95
  12   1   6   38.66   59.45
  12   1   6   99.15   31.79
  12   1   7  169.03   58.94
  12   1   7  119.52   37.14
  12   1   7   76.55   39.40
  12   1   7  140.57   36.89
  12   1   8   72.25   56.10
  12   1   8   36.30   51.02
  12   1   8   64.12   48.35
  12   1   8   36.24   41.64
  12   1   8   18.85   44.38
  12   1   9  195.99   58.73
  12   1   9   59.44   56.71
  12   1   9   49.36   54.57
  12   1   9   19.59   47.05
  12   1   9   77.46   47.33
  12   2   0   14.55   56.67
  12   2   3  143.85   58.68
  12   2   4  -20.46   60.54
  12   2   5  -51.69   60.98
  12   2   6  111.25   59.76
  12   2   6   40.10   57.75
  12   2   6    7.90   28.75
  12   2   6   60.02   27.39
  12   2   7   -4.33   34.85
  12   2   7   26.58   35.41
  12   2   8   98.49   55.38
  12   2   8    4.81   41.68
  12   2   8   54.55   40.68
  12   2   9  145.65   55.87
  12   2   9   52.65   48.40
  12   2   9  -19.04   45.21
  12   2   9   48.36   44.85
  12   3   1   13.65   57.72
  12   3   2   95.77   56.78
  12   3   5  165.34   60.44
  12   3   5  148.59   62.74
  12   3   6   52.34   59.51
  12   3   6   23.75   55.52
  12   3   6   48.49   26.67
  12   3   6   44.68   27.32
  12   3   7  220.09   57.40
  12   3   7   75.84   56.74
  12   3   7   82.88   33.94
  12   3   8  160.71   54.61
  12   3   8  146.58   40.19
  12   3   9  297.78   56.75
  12   3   9  199.90   45.91
  12   4   2  157.90   58.56
  12   4   3  452.43   62.88
  12   4   5  274.39   60.94
  12   4   6  260.19   62.80
  12   4   6  242.85   59.35
  12   4   6  134.21   28.01
  12   4   7  123.26   58.37
  12   4   7  101.40   52.83
  12   4   7   63.25   33.20
  12   4   8  206.34   56.30
  12   4   8  104.18   52.40
  12   4   8   47.69   38.16
  12   4   9  178.71   57.46
  12   4   9  132.73   52.32
  12   4   9  166.72   44.52
  12   5   3   89.12   57.94
  12   5   4  -41.00   61.52
  12   5   5   24.56   23.33
  12   5   5   43.73   20.59
  12   5   6  135.79   55.34
  12   5   6   80.41   28.30
  12   5   7   91.09   54.06
  12   5   7   35.72   33.01
  12   5   8  103.58   57.04
  12   5   8   45.05   51.08
  12   5   8   62.00   37.61
  12   5   9  107.80   49.06
  12   5   9  146.11   43.67
  12   6   5  105.58   66.47
  12   6   5   93.07   26.60
  12   6   5   62.38   32.70
  12   6   6  229.32   65.13
  12   6   6  220.32   57.07
  12   6   6  120.14   31.66
  12   6   7  208.31   52.87
  12   6   7  118.02   36.38
  12   6   8  202.87   51.21
  12   6   8  131.87   40.27
  13  -1   2  224.11   66.00
  13  -1   3  220.06   64.21
  13  -1   4  179.67   61.59
  13  -1   5  -26.99   63.65
  13   0   2    4.89   62.98
  13   0   3  -44.47   61.08
  13   0   4   13.00   62.26
  13   0   5  -63.15   63.17
  13   0   6  -44.69   66.01
  13   1   3  334.70   65.99
  13   1   4   73.45   62.77
  13   1   5   28.04   65.73
  13   1   6  167.68   66.01
  13   2   4  152.47   65.87
  13   2   5   48.22   67.18
  13   2   6  150.16   66.38
  13   3   6  -59.17   66.59
   0   0   0    0.00    0.00




TITL m2341-new in P1
REM P1 (#1 in standard setting)
CELL 0.71073  11.131722  11.350596  12.129284  62.8250  73.1921  87.2084
ZERR    2.00   0.000854   0.000915   0.000630   0.0065   0.0056   0.0064
LATT -1
SFAC C H N P Ir
UNIT 60.00 80.00 8.00 4.00 2.00
REM  CrysAlisPro recorded range (K): Min=99.9; max=100.1; aver:100.0
TEMP -173
SIZE 0.03 0.08 0.15
TREF
HKLF 4
END
_computing_structure_solution     'SHELXT 2014/5 (Sheldrick, 2014)'
_computing_structure_solution     'SHELXT 2014/5 (Sheldrick, 2014)'
_computing_structure_solution     'SHELXT 2018/2 (Sheldrick, 2018)'
;
_shelx_hkl_checksum                18796
_olex2_submission_special_instructions  'No special instructions were received'
loop_
  _twin_individual_id
  _twin_individual_mass_fraction_refined
 1 0.54(4)
 2 0.46(4)



