##############################################################################
#                                                                            #
# This CIF contains the data in a paper accepted for publication in          #
# Acta Crystallographica Section E. It conforms to the requirements of       #
# Notes for Authors for Acta Crystallographica Section E, and has been       #
# peer reviewed under the auspices of the IUCr Commission on Journals.       #
#                                                                            #
# Full details of the Crystallographic Information File format               #
# are given in the paper "The Crystallographic Information File (CIF):       #
# a New Standard Archive File for Crystallography" by S. R. Hall, F. H.      #
# Allen and I. D. Brown [Acta Cryst. (1991), A47, 655-685].                  #
#                                                                            #
# The current version of the core CIF dictionary is obtainable from          #
# ftp://ftp.iucr.org/pub/cif_core.dic.                                       #
#                                                                            #
# Software is freely available for graphical display of the structure(s)     #
# in this CIF. For information consult the CIF software page                 #
# http://www.iucr.org/resources/cif/software.                                #
#                                                                            #
# This file may be used for bona fide research purposes within the           #
# scientific community so long as proper attribution is given to the journal # 
# article from which it was obtained.                                        #
#                                                                            #
##############################################################################
data_I
_audit_creation_method     'SHELXL-2018/3'
_journal_date_recd_electronic     2018-12-03
_journal_date_accepted     2019-01-30
_journal_name_full     'Acta Crystallographica, Section E'
_journal_year     2019
_journal_volume     75
_journal_issue      3
_journal_page_first     342
_journal_page_last     345
_journal_paper_category     GM
_journal_paper_doi     10.1107/S2056989019001725
_journal_coeditor_code     HB7792
_publ_contact_author_name     'Flavien A. A. Toze'
_publ_contact_author_address
;
Department of Chemistry,
Faculty of Sciences,
University of Douala,
PO Box 24157, Douala,
Republic of Cameroon
;
_publ_contact_author_email     'toflavien@yahoo.fr'
_publ_contact_author_fax     ?
_publ_contact_author_phone     ?
_publ_section_title
;\
Crystal structure of
[1,3-bis(2,4,6-trimethylphenyl)imidazolidin-2-ylidene]dichlorido{2-[1-\
(dimethylamino)ethyl]benzylidene}ruthenium including an unknown solvate
;
loop_
    _publ_author_name
    _publ_author_address
    'Kirill B. Polyanskii'
;
Organic Chemistry Department,
Faculty of Science, Peoples' Friendship University of Russia (RUDN \
 University),
6 Miklukho-Maklaya St., Moscow 117198,
Russian Federation
;
    'Kseniia A. Alekseeva'
;
Organic Chemistry Department,
Faculty of Science, Peoples' Friendship University of Russia (RUDN \
 University),
6 Miklukho-Maklaya St., Moscow 117198,
Russian Federation
;
    'Pavel A. Kumandin'
;
Organic Chemistry Department,
Faculty of Science, Peoples' Friendship University of Russia (RUDN \
 University),
6 Miklukho-Maklaya St., Moscow 117198,
Russian Federation
;
    'Zeliha Atio\(glu'
;
\.Ilke Education and Health Foundation,
Cappadocia University,
Cappadocia Vocational College,
The Medical Imaging Techniques Program,
50420 Mustafapa\,sa, \"Urg\"up,
Nev\,sehir,
Turkey
;
    'Akkurt, Mehmet'
;
Department of Physics,
Faculty of Sciences,
Erciyes University,
38039 Kayseri,
Turkey
;
    'Flavien A. A. Toze'
;
Department of Chemistry,
Faculty of Sciences,
University of Douala,
PO Box 24157, Douala,
Republic of Cameroon
;
_publ_section_synopsis
;
The  compound [RuCl~2~(C~21~H~26~N~2~)(C~11~H~15~N)] is an example of a new
generation of <i>N</i>,<i>N</i>-dialkyl metallocomplex ruthenium catalysts
with an N\\rightarrowRu coordination bond in a six-membered chelate ring.
;
_chemical_name_systematic
;\
[1,3-Bis(2,4,6-trimethylphenyl)imidazolidin-2-ylidene]dichlorido{2-[1-\
(dimethylamino)ethyl]benzylidene}ruthenium
;
_chemical_name_common     ?
_chemical_formula_moiety     'C32 H41 Cl2 N3 Ru'
_chemical_formula_sum     'C32 H41 Cl2 N3 Ru'
_chemical_formula_iupac     '[Ru Cl2 (C21 H26 N2) (C11 H15 N)]'
_chemical_formula_weight     639.65
_chemical_melting_point     ?
_space_group_crystal_system     monoclinic
_space_group_name_H-M_alt     'C 2/c'
_space_group_name_Hall     '-C 2yc'
loop_
    _space_group_symop_operation_xyz
    'x, y, z'
    '-x, y, -z+1/2'
    'x+1/2, y+1/2, z'
    '-x+1/2, y+1/2, -z+1/2'
    '-x, -y, -z'
    'x, -y, z-1/2'
    '-x+1/2, -y+1/2, -z'
    'x+1/2, -y+1/2, z-1/2'
_cell_length_a     35.8175(17)
_cell_length_b     10.5633(5)
_cell_length_c     24.0946(11)
_cell_angle_alpha     90
_cell_angle_beta     131.781(2)
_cell_angle_gamma     90
_cell_volume     6797.9(6)
_cell_formula_units_Z     8
_cell_measurement_reflns_used     4879
_cell_measurement_theta_min     2.60
_cell_measurement_theta_max     24.88
_cell_measurement_temperature     296(2)
_exptl_crystal_description     'block'
_exptl_crystal_colour     'green'
_exptl_crystal_size_max     0.340
_exptl_crystal_size_mid     0.280
_exptl_crystal_size_min     0.210
_exptl_crystal_density_diffrn     1.250
_exptl_crystal_density_meas     ?
_exptl_crystal_density_method     ?
_exptl_crystal_F_000     2656
_exptl_absorpt_coefficient_mu     0.641
_exptl_absorpt_correction_type     none
_exptl_absorpt_process_details     ?
_exptl_absorpt_correction_T_min     ?
_exptl_absorpt_correction_T_max     ?
_diffrn_ambient_temperature     296(2)
_diffrn_radiation_type     MoK\a
_diffrn_radiation_wavelength     0.71073
_diffrn_radiation_source     ?
_diffrn_radiation_monochromator     ?
_diffrn_measurement_device_type     'Bruker APEXII CCD'
_diffrn_measurement_method     '\f and \w scans'
_diffrn_detector_area_resol_mean     ?
_diffrn_reflns_number     21100
_diffrn_reflns_av_R_equivalents     0.0412
_diffrn_reflns_av_unetI/netI     0.0576
_diffrn_reflns_theta_min     2.992
_diffrn_reflns_theta_max     27.141
_diffrn_reflns_theta_full     25.242
_diffrn_measured_fraction_theta_max     0.994
_diffrn_measured_fraction_theta_full     0.998
_diffrn_reflns_limit_h_min     -45
_diffrn_reflns_limit_h_max     45
_diffrn_reflns_limit_k_min     -13
_diffrn_reflns_limit_k_max     12
_diffrn_reflns_limit_l_min     -29
_diffrn_reflns_limit_l_max     30
_refine_special_details     ?
_reflns_number_total     7485
_reflns_number_gt     5440
_reflns_threshold_expression     'I > 2\s(I)'
_refine_ls_structure_factor_coef     Fsqd
_refine_ls_matrix_type     full
_refine_ls_R_factor_all     0.0605
_refine_ls_R_factor_gt     0.0382
_refine_ls_wR_factor_gt     0.1017
_refine_ls_wR_factor_ref     0.1097
_refine_ls_goodness_of_fit_ref     1.039
_refine_ls_restrained_S_all     1.039
_refine_ls_number_reflns     7485
_refine_ls_number_parameters     352
_refine_ls_number_restraints     0
_refine_ls_hydrogen_treatment     constr
_refine_ls_weighting_scheme     calc
_refine_ls_weighting_details
              'w=1/[\s^2^(Fo^2^)+(0.0547P)^2^+3.4409P] where P=(Fo^2^+2Fc^2^)/3'
_atom_sites_solution_hydrogens     geom
_atom_sites_solution_primary     direct
_atom_sites_solution_secondary     ?
_refine_ls_shift/su_max     0.000
_refine_ls_shift/su_mean     0.000
_refine_diff_density_max     0.455
_refine_diff_density_min     -0.443
_refine_ls_extinction_method     none
_refine_ls_extinction_coef     .
loop_
    _atom_type_symbol
    _atom_type_description
    _atom_type_scat_dispersion_real
    _atom_type_scat_dispersion_imag
    _atom_type_scat_source
    'C' 'C' 0.0033 0.0016
                         'International Tables Vol C Tables 4.2.6.8 and 6.1.1.4'
    'H' 'H' 0.0000 0.0000
                         'International Tables Vol C Tables 4.2.6.8 and 6.1.1.4'
    'N' 'N' 0.0061 0.0033
                         'International Tables Vol C Tables 4.2.6.8 and 6.1.1.4'
    'Cl' 'Cl' 0.1484 0.1585
                         'International Tables Vol C Tables 4.2.6.8 and 6.1.1.4'
    'Ru' 'Ru' -1.2594 0.8363
                         'International Tables Vol C Tables 4.2.6.8 and 6.1.1.4'
_computing_data_collection
;
APEX2 (Bruker, 2007)
;
_computing_cell_refinement
;
SAINT (Bruker, 2007)
;
_computing_data_reduction
;
SAINT (Bruker, 2007)
;
_computing_structure_solution
;
SHELXS97 (Sheldrick, 2008)
;
_computing_structure_refinement
;
SHELXL2014 (Sheldrick, 2015)
;
_computing_molecular_graphics
;
ORTEP-3 for Windows (Farrugia, 2012)
;
_computing_publication_material
;
PLATON (Spek, 2009)
;
loop_
    _atom_site_type_symbol
    _atom_site_label
    _atom_site_fract_x
    _atom_site_fract_y
    _atom_site_fract_z
    _atom_site_U_iso_or_equiv
    _atom_site_adp_type
    _atom_site_calc_flag
    _atom_site_occupancy
    _atom_site_disorder_assembly
    _atom_site_disorder_group
    Ru Ru1 0.36323(2) 0.25559(2) 0.30233(2) 0.01497(8) Uani d 1 . .
    Cl Cl1 0.27925(3) 0.19526(8) 0.21120(5) 0.02716(19) Uani d 1 . .
    Cl Cl2 0.43877(3) 0.35398(7) 0.35226(5) 0.02444(18) Uani d 1 . .
    N N1 0.38319(10) 0.0907(2) 0.26624(14) 0.0209(6) Uani d 1 . .
    N N2 0.35668(10) 0.4598(2) 0.38862(14) 0.0174(5) Uani d 1 . .
    N N3 0.33199(10) 0.5233(2) 0.28339(14) 0.0198(6) Uani d 1 . .
    C C1 0.43550(12) 0.0483(3) 0.33159(18) 0.0259(8) Uani d 1 . .
    H H1 0.455358 0.125580 0.355837 0.031 Uiso calc 1 . .
    C C2 0.46125(14) -0.0283(4) 0.3115(2) 0.0355(9) Uani d 1 . .
    H H2A 0.495658 -0.042027 0.355392 0.053 Uiso calc 1 . .
    H H2B 0.459579 0.017417 0.275447 0.053 Uiso calc 1 . .
    H H2C 0.444691 -0.108425 0.290984 0.053 Uiso calc 1 . .
    C C3 0.43498(12) -0.0165(3) 0.38758(18) 0.0234(7) Uani d 1 . .
    C C4 0.46076(13) -0.1295(3) 0.4219(2) 0.0298(8) Uani d 1 . .
    H H4 0.476461 -0.168616 0.407563 0.036 Uiso calc 1 . .
    C C5 0.46369(14) -0.1853(4) 0.4767(2) 0.0351(9) Uani d 1 . .
    H H5 0.481190 -0.260705 0.498552 0.042 Uiso calc 1 . .
    C C6 0.44114(13) -0.1303(3) 0.49874(19) 0.0297(8) Uani d 1 . .
    H H6 0.443424 -0.167247 0.535946 0.036 Uiso calc 1 . .
    C C7 0.41467(12) -0.0186(3) 0.46528(18) 0.0246(7) Uani d 1 . .
    H H7 0.399250 0.018681 0.480504 0.029 Uiso calc 1 . .
    C C8 0.41055(11) 0.0395(3) 0.40913(17) 0.0195(7) Uani d 1 . .
    C C9 0.38247(11) 0.1576(3) 0.37985(17) 0.0192(7) Uani d 1 . .
    H H9 0.372759 0.188017 0.404817 0.023 Uiso calc 1 . .
    C C10 0.34805(13) -0.0197(3) 0.23194(19) 0.0290(8) Uani d 1 . .
    H H10A 0.345193 -0.051843 0.266234 0.044 Uiso calc 1 . .
    H H10B 0.360709 -0.084894 0.220549 0.044 Uiso calc 1 . .
    H H10C 0.315705 0.006978 0.187030 0.044 Uiso calc 1 . .
    C C11 0.38039(15) 0.1501(3) 0.20776(19) 0.0315(8) Uani d 1 . .
    H H11A 0.406681 0.211464 0.230071 0.047 Uiso calc 1 . .
    H H11B 0.348547 0.191039 0.171901 0.047 Uiso calc 1 . .
    H H11C 0.384139 0.086122 0.183470 0.047 Uiso calc 1 . .
    C C12 0.34786(11) 0.4203(3) 0.32755(16) 0.0161(6) Uani d 1 . .
    C C13 0.34674(13) 0.5960(3) 0.38801(18) 0.0227(7) Uani d 1 . .
    H H13A 0.376768 0.640104 0.429556 0.027 Uiso calc 1 . .
    H H13B 0.320685 0.608402 0.389721 0.027 Uiso calc 1 . .
    C C14 0.32972(14) 0.6408(3) 0.31387(19) 0.0267(8) Uani d 1 . .
    H H14A 0.295961 0.674526 0.281612 0.032 Uiso calc 1 . .
    H H14B 0.352141 0.704645 0.321270 0.032 Uiso calc 1 . .
    C C15 0.36943(12) 0.3844(3) 0.44852(16) 0.0179(7) Uani d 1 . .
    C C16 0.41955(13) 0.3761(3) 0.51418(18) 0.0235(7) Uani d 1 . .
    C C17 0.43046(14) 0.3025(3) 0.57136(19) 0.0298(8) Uani d 1 . .
    H H17 0.463580 0.295647 0.615705 0.036 Uiso calc 1 . .
    C C18 0.39371(16) 0.2390(3) 0.5645(2) 0.0335(9) Uani d 1 . .
    C C19 0.34442(15) 0.2522(3) 0.4989(2) 0.0304(8) Uani d 1 . .
    H H19 0.319462 0.211225 0.494219 0.036 Uiso calc 1 . .
    C C20 0.33091(12) 0.3250(3) 0.43947(18) 0.0212(7) Uani d 1 . .
    C C21 0.45973(13) 0.4446(3) 0.52318(19) 0.0316(8) Uani d 1 . .
    H H21A 0.491880 0.414900 0.567151 0.047 Uiso calc 1 . .
    H H21B 0.457045 0.533797 0.527643 0.047 Uiso calc 1 . .
    H H21C 0.456104 0.429297 0.480524 0.047 Uiso calc 1 . .
    C C22 0.40732(18) 0.1573(4) 0.6276(2) 0.0503(12) Uani d 1 . .
    H H22A 0.440341 0.178879 0.672911 0.075 Uiso calc 1 . .
    H H22B 0.406526 0.069698 0.616245 0.075 Uiso calc 1 . .
    H H22C 0.383708 0.171613 0.633607 0.075 Uiso calc 1 . .
    C C23 0.27768(13) 0.3329(3) 0.3681(2) 0.0299(8) Uani d 1 . .
    H H23A 0.256838 0.285893 0.372514 0.045 Uiso calc 1 . .
    H H23B 0.274738 0.298087 0.328510 0.045 Uiso calc 1 . .
    H H23C 0.267244 0.419876 0.357329 0.045 Uiso calc 1 . .
    C C24 0.31131(13) 0.5223(3) 0.20761(17) 0.0220(7) Uani d 1 . .
    C C25 0.26105(13) 0.4902(3) 0.15098(19) 0.0271(8) Uani d 1 . .
    C C26 0.24212(15) 0.4841(4) 0.0789(2) 0.0412(10) Uani d 1 . .
    H H26 0.209202 0.458177 0.040854 0.049 Uiso calc 1 . .
    C C27 0.27115(18) 0.5156(4) 0.0622(2) 0.0500(12) Uani d 1 . .
    C C28 0.31984(17) 0.5575(4) 0.1182(2) 0.0446(11) Uani d 1 . .
    H H28 0.338852 0.582460 0.106630 0.054 Uiso calc 1 . .
    C C29 0.34055(14) 0.5626(3) 0.19176(19) 0.0294(8) Uani d 1 . .
    C C30 0.22693(13) 0.4698(3) 0.1655(2) 0.0342(9) Uani d 1 . .
    H H30A 0.245338 0.432243 0.213694 0.051 Uiso calc 1 . .
    H H30B 0.200096 0.414548 0.128166 0.051 Uiso calc 1 . .
    H H30C 0.213420 0.549657 0.163869 0.051 Uiso calc 1 . .
    C C31 0.2495(2) 0.5069(6) -0.0179(3) 0.087(2) Uani d 1 . .
    H H31A 0.275683 0.486405 -0.017664 0.131 Uiso calc 1 . .
    H H31B 0.234799 0.586665 -0.042432 0.131 Uiso calc 1 . .
    H H31C 0.224272 0.442093 -0.043926 0.131 Uiso calc 1 . .
    C C32 0.39242(14) 0.6178(3) 0.2506(2) 0.0337(9) Uani d 1 . .
    H H32A 0.405493 0.592815 0.299048 0.051 Uiso calc 1 . .
    H H32B 0.390623 0.708490 0.247040 0.051 Uiso calc 1 . .
    H H32C 0.414020 0.587167 0.243167 0.051 Uiso calc 1 . .
loop_
    _atom_site_aniso_label
    _atom_site_aniso_U_11
    _atom_site_aniso_U_22
    _atom_site_aniso_U_33
    _atom_site_aniso_U_12
    _atom_site_aniso_U_13
    _atom_site_aniso_U_23
    Ru1 0.01431(13) 0.01479(14) 0.01431(13) -0.00060(10) 0.00891(10) 0.00059(10)
    Cl1 0.0164(4) 0.0262(4) 0.0285(4) -0.0033(3) 0.0106(4) -0.0033(4)
    Cl2 0.0179(4) 0.0208(4) 0.0299(4) -0.0027(3) 0.0139(4) 0.0001(3)
    N1 0.0227(14) 0.0206(14) 0.0195(14) 0.0009(11) 0.0141(12) 0.0008(11)
    N2 0.0215(14) 0.0123(13) 0.0168(13) 0.0009(10) 0.0121(12) 0.0008(10)
    N3 0.0217(14) 0.0170(14) 0.0181(14) 0.0037(11) 0.0122(12) 0.0029(11)
    C1 0.0222(17) 0.0245(18) 0.0259(18) 0.0056(14) 0.0139(16) -0.0023(14)
    C2 0.035(2) 0.035(2) 0.042(2) 0.0024(17) 0.028(2) -0.0011(17)
    C3 0.0200(17) 0.0206(18) 0.0221(17) -0.0009(13) 0.0110(15) 0.0007(14)
    C4 0.0249(18) 0.0256(19) 0.030(2) 0.0017(15) 0.0149(16) 0.0021(16)
    C5 0.031(2) 0.023(2) 0.035(2) 0.0027(16) 0.0157(18) 0.0066(17)
    C6 0.0279(19) 0.028(2) 0.0216(18) -0.0021(15) 0.0115(16) 0.0076(15)
    C7 0.0250(18) 0.0217(18) 0.0238(18) -0.0033(14) 0.0149(16) -0.0001(14)
    C8 0.0179(15) 0.0174(16) 0.0160(15) -0.0042(12) 0.0083(14) -0.0005(12)
    C9 0.0217(16) 0.0181(17) 0.0194(16) -0.0013(13) 0.0143(14) -0.0031(13)
    C10 0.032(2) 0.0216(18) 0.030(2) -0.0042(15) 0.0187(17) -0.0067(15)
    C11 0.044(2) 0.031(2) 0.030(2) 0.0041(17) 0.0288(19) 0.0025(16)
    C12 0.0116(14) 0.0185(16) 0.0162(15) -0.0025(12) 0.0085(13) 0.0007(12)
    C13 0.0257(17) 0.0174(17) 0.0241(17) 0.0042(14) 0.0161(15) 0.0014(13)
    C14 0.035(2) 0.0172(18) 0.0313(19) 0.0064(15) 0.0233(17) 0.0026(14)
    C15 0.0233(16) 0.0145(16) 0.0142(15) 0.0014(13) 0.0117(14) -0.0017(12)
    C16 0.0268(18) 0.0194(17) 0.0214(17) 0.0012(14) 0.0149(15) -0.0016(14)
    C17 0.033(2) 0.0285(19) 0.0187(17) 0.0068(16) 0.0134(16) 0.0001(15)
    C18 0.053(2) 0.027(2) 0.034(2) 0.0070(18) 0.034(2) 0.0039(16)
    C19 0.044(2) 0.0282(19) 0.035(2) -0.0015(17) 0.0331(19) 0.0006(16)
    C20 0.0277(17) 0.0165(17) 0.0260(18) -0.0011(14) 0.0206(16) -0.0031(14)
    C21 0.0197(17) 0.032(2) 0.0253(19) -0.0008(15) 0.0076(15) 0.0024(16)
    C22 0.073(3) 0.049(3) 0.044(3) 0.015(2) 0.045(3) 0.018(2)
    C23 0.0277(19) 0.030(2) 0.034(2) -0.0045(15) 0.0220(17) -0.0061(16)
    C24 0.0284(18) 0.0182(17) 0.0186(16) 0.0048(14) 0.0153(15) 0.0042(13)
    C25 0.0275(19) 0.0203(18) 0.0241(18) 0.0041(14) 0.0133(16) 0.0047(14)
    C26 0.038(2) 0.044(2) 0.0205(19) 0.0013(19) 0.0107(18) 0.0057(17)
    C27 0.064(3) 0.057(3) 0.024(2) -0.001(2) 0.027(2) 0.002(2)
    C28 0.057(3) 0.053(3) 0.035(2) -0.001(2) 0.035(2) 0.008(2)
    C29 0.034(2) 0.0265(19) 0.0279(19) 0.0015(16) 0.0206(17) 0.0053(15)
    C30 0.0260(19) 0.029(2) 0.038(2) 0.0041(16) 0.0172(18) 0.0030(17)
    C31 0.099(5) 0.120(5) 0.037(3) -0.024(4) 0.043(3) -0.010(3)
    C32 0.036(2) 0.029(2) 0.039(2) 0.0002(16) 0.0264(19) 0.0064(17)
_geom_special_details
;
 All esds (except the esd in the dihedral angle between two l.s. planes)
 are estimated using the full covariance matrix.  The cell esds are taken
 into account individually in the estimation of esds in distances, angles
 and torsion angles; correlations between esds in cell parameters are only
 used when they are defined by crystal symmetry.  An approximate (isotropic)
 treatment of cell esds is used for estimating esds involving l.s. planes.
;
loop_
    _geom_bond_atom_site_label_1
    _geom_bond_atom_site_label_2
    _geom_bond_site_symmetry_2
    _geom_bond_distance
    _geom_bond_publ_flag
    Ru1 C9 . 1.822(3) y
    Ru1 C12 . 2.036(3) y
    Ru1 N1 . 2.265(3) y
    Ru1 Cl1 . 2.3397(8) y
    Ru1 Cl2 . 2.3476(8) y
    N1 C11 . 1.483(4) ?
    N1 C10 . 1.497(4) ?
    N1 C1 . 1.503(4) ?
    N2 C12 . 1.349(4) ?
    N2 C15 . 1.431(4) ?
    N2 C13 . 1.480(4) ?
    N3 C12 . 1.354(4) ?
    N3 C24 . 1.442(4) ?
    N3 C14 . 1.471(4) ?
    C1 C3 . 1.524(4) ?
    C1 C2 . 1.528(4) ?
    C1 H1 . 0.9800 ?
    C2 H2A . 0.9600 ?
    C2 H2B . 0.9600 ?
    C2 H2C . 0.9600 ?
    C3 C4 . 1.394(5) ?
    C3 C8 . 1.411(4) ?
    C4 C5 . 1.385(5) ?
    C4 H4 . 0.9300 ?
    C5 C6 . 1.357(5) ?
    C5 H5 . 0.9300 ?
    C6 C7 . 1.386(5) ?
    C6 H6 . 0.9300 ?
    C7 C8 . 1.401(4) ?
    C7 H7 . 0.9300 ?
    C8 C9 . 1.456(4) ?
    C9 H9 . 0.9300 ?
    C10 H10A . 0.9600 ?
    C10 H10B . 0.9600 ?
    C10 H10C . 0.9600 ?
    C11 H11A . 0.9600 ?
    C11 H11B . 0.9600 ?
    C11 H11C . 0.9600 ?
    C13 C14 . 1.528(4) ?
    C13 H13A . 0.9700 ?
    C13 H13B . 0.9700 ?
    C14 H14A . 0.9700 ?
    C14 H14B . 0.9700 ?
    C15 C20 . 1.394(4) ?
    C15 C16 . 1.396(4) ?
    C16 C17 . 1.392(5) ?
    C16 C21 . 1.492(5) ?
    C17 C18 . 1.386(5) ?
    C17 H17 . 0.9300 ?
    C18 C19 . 1.384(5) ?
    C18 C22 . 1.519(5) ?
    C19 C20 . 1.397(5) ?
    C19 H19 . 0.9300 ?
    C20 C23 . 1.494(5) ?
    C21 H21A . 0.9600 ?
    C21 H21B . 0.9600 ?
    C21 H21C . 0.9600 ?
    C22 H22A . 0.9600 ?
    C22 H22B . 0.9600 ?
    C22 H22C . 0.9600 ?
    C23 H23A . 0.9600 ?
    C23 H23B . 0.9600 ?
    C23 H23C . 0.9600 ?
    C24 C25 . 1.394(5) ?
    C24 C29 . 1.399(5) ?
    C25 C26 . 1.383(5) ?
    C25 C30 . 1.493(5) ?
    C26 C27 . 1.383(6) ?
    C26 H26 . 0.9300 ?
    C27 C28 . 1.387(6) ?
    C27 C31 . 1.529(6) ?
    C28 C29 . 1.393(5) ?
    C28 H28 . 0.9300 ?
    C29 C32 . 1.514(5) ?
    C30 H30A . 0.9600 ?
    C30 H30B . 0.9600 ?
    C30 H30C . 0.9600 ?
    C31 H31A . 0.9600 ?
    C31 H31B . 0.9600 ?
    C31 H31C . 0.9600 ?
    C32 H32A . 0.9600 ?
    C32 H32B . 0.9600 ?
    C32 H32C . 0.9600 ?
loop_
    _geom_angle_atom_site_label_1
    _geom_angle_atom_site_label_2
    _geom_angle_atom_site_label_3
    _geom_angle_site_symmetry_1
    _geom_angle_site_symmetry_3
    _geom_angle
    _geom_angle_publ_flag
    C9 Ru1 C12 . . 99.91(12) y
    C9 Ru1 N1 . . 87.49(12) y
    C12 Ru1 N1 . . 171.53(10) y
    C9 Ru1 Cl1 . . 100.30(10) y
    C12 Ru1 Cl1 . . 94.51(8) y
    N1 Ru1 Cl1 . . 88.15(7) y
    C9 Ru1 Cl2 . . 101.93(10) y
    C12 Ru1 Cl2 . . 85.25(8) y
    N1 Ru1 Cl2 . . 89.21(7) y
    Cl1 Ru1 Cl2 . . 157.47(3) y
    C11 N1 C10 . . 107.8(3) ?
    C11 N1 C1 . . 111.7(3) ?
    C10 N1 C1 . . 110.4(3) ?
    C11 N1 Ru1 . . 101.59(19) ?
    C10 N1 Ru1 . . 116.52(19) ?
    C1 N1 Ru1 . . 108.62(19) ?
    C12 N2 C15 . . 127.8(3) ?
    C12 N2 C13 . . 114.2(2) ?
    C15 N2 C13 . . 117.7(2) ?
    C12 N3 C24 . . 125.5(3) ?
    C12 N3 C14 . . 114.8(2) ?
    C24 N3 C14 . . 119.1(2) ?
    N1 C1 C3 . . 108.6(3) ?
    N1 C1 C2 . . 114.8(3) ?
    C3 C1 C2 . . 114.1(3) ?
    N1 C1 H1 . . 106.2 ?
    C3 C1 H1 . . 106.2 ?
    C2 C1 H1 . . 106.2 ?
    C1 C2 H2A . . 109.5 ?
    C1 C2 H2B . . 109.5 ?
    H2A C2 H2B . . 109.5 ?
    C1 C2 H2C . . 109.5 ?
    H2A C2 H2C . . 109.5 ?
    H2B C2 H2C . . 109.5 ?
    C4 C3 C8 . . 118.0(3) ?
    C4 C3 C1 . . 121.0(3) ?
    C8 C3 C1 . . 120.9(3) ?
    C5 C4 C3 . . 121.9(3) ?
    C5 C4 H4 . . 119.0 ?
    C3 C4 H4 . . 119.0 ?
    C6 C5 C4 . . 120.3(3) ?
    C6 C5 H5 . . 119.9 ?
    C4 C5 H5 . . 119.9 ?
    C5 C6 C7 . . 119.4(3) ?
    C5 C6 H6 . . 120.3 ?
    C7 C6 H6 . . 120.3 ?
    C6 C7 C8 . . 121.7(3) ?
    C6 C7 H7 . . 119.1 ?
    C8 C7 H7 . . 119.1 ?
    C7 C8 C3 . . 118.7(3) ?
    C7 C8 C9 . . 116.0(3) ?
    C3 C8 C9 . . 125.3(3) ?
    C8 C9 Ru1 . . 130.6(2) ?
    C8 C9 H9 . . 114.7 ?
    Ru1 C9 H9 . . 114.7 ?
    N1 C10 H10A . . 109.5 ?
    N1 C10 H10B . . 109.5 ?
    H10A C10 H10B . . 109.5 ?
    N1 C10 H10C . . 109.5 ?
    H10A C10 H10C . . 109.5 ?
    H10B C10 H10C . . 109.5 ?
    N1 C11 H11A . . 109.5 ?
    N1 C11 H11B . . 109.5 ?
    H11A C11 H11B . . 109.5 ?
    N1 C11 H11C . . 109.5 ?
    H11A C11 H11C . . 109.5 ?
    H11B C11 H11C . . 109.5 ?
    N2 C12 N3 . . 106.2(3) ?
    N2 C12 Ru1 . . 132.6(2) ?
    N3 C12 Ru1 . . 120.5(2) ?
    N2 C13 C14 . . 102.6(2) ?
    N2 C13 H13A . . 111.2 ?
    C14 C13 H13A . . 111.2 ?
    N2 C13 H13B . . 111.2 ?
    C14 C13 H13B . . 111.2 ?
    H13A C13 H13B . . 109.2 ?
    N3 C14 C13 . . 102.2(2) ?
    N3 C14 H14A . . 111.3 ?
    C13 C14 H14A . . 111.3 ?
    N3 C14 H14B . . 111.3 ?
    C13 C14 H14B . . 111.3 ?
    H14A C14 H14B . . 109.2 ?
    C20 C15 C16 . . 122.7(3) ?
    C20 C15 N2 . . 118.4(3) ?
    C16 C15 N2 . . 118.9(3) ?
    C17 C16 C15 . . 117.2(3) ?
    C17 C16 C21 . . 121.3(3) ?
    C15 C16 C21 . . 121.5(3) ?
    C18 C17 C16 . . 122.3(3) ?
    C18 C17 H17 . . 118.9 ?
    C16 C17 H17 . . 118.9 ?
    C19 C18 C17 . . 118.4(3) ?
    C19 C18 C22 . . 121.0(4) ?
    C17 C18 C22 . . 120.7(4) ?
    C18 C19 C20 . . 122.2(3) ?
    C18 C19 H19 . . 118.9 ?
    C20 C19 H19 . . 118.9 ?
    C15 C20 C19 . . 117.2(3) ?
    C15 C20 C23 . . 121.7(3) ?
    C19 C20 C23 . . 121.1(3) ?
    C16 C21 H21A . . 109.5 ?
    C16 C21 H21B . . 109.5 ?
    H21A C21 H21B . . 109.5 ?
    C16 C21 H21C . . 109.5 ?
    H21A C21 H21C . . 109.5 ?
    H21B C21 H21C . . 109.5 ?
    C18 C22 H22A . . 109.5 ?
    C18 C22 H22B . . 109.5 ?
    H22A C22 H22B . . 109.5 ?
    C18 C22 H22C . . 109.5 ?
    H22A C22 H22C . . 109.5 ?
    H22B C22 H22C . . 109.5 ?
    C20 C23 H23A . . 109.5 ?
    C20 C23 H23B . . 109.5 ?
    H23A C23 H23B . . 109.5 ?
    C20 C23 H23C . . 109.5 ?
    H23A C23 H23C . . 109.5 ?
    H23B C23 H23C . . 109.5 ?
    C25 C24 C29 . . 121.3(3) ?
    C25 C24 N3 . . 118.7(3) ?
    C29 C24 N3 . . 119.8(3) ?
    C26 C25 C24 . . 118.2(3) ?
    C26 C25 C30 . . 119.6(3) ?
    C24 C25 C30 . . 122.0(3) ?
    C27 C26 C25 . . 121.3(4) ?
    C27 C26 H26 . . 119.3 ?
    C25 C26 H26 . . 119.3 ?
    C26 C27 C28 . . 119.7(4) ?
    C26 C27 C31 . . 120.3(4) ?
    C28 C27 C31 . . 120.0(4) ?
    C27 C28 C29 . . 120.6(4) ?
    C27 C28 H28 . . 119.7 ?
    C29 C28 H28 . . 119.7 ?
    C28 C29 C24 . . 118.3(3) ?
    C28 C29 C32 . . 119.2(3) ?
    C24 C29 C32 . . 122.4(3) ?
    C25 C30 H30A . . 109.5 ?
    C25 C30 H30B . . 109.5 ?
    H30A C30 H30B . . 109.5 ?
    C25 C30 H30C . . 109.5 ?
    H30A C30 H30C . . 109.5 ?
    H30B C30 H30C . . 109.5 ?
    C27 C31 H31A . . 109.5 ?
    C27 C31 H31B . . 109.5 ?
    H31A C31 H31B . . 109.5 ?
    C27 C31 H31C . . 109.5 ?
    H31A C31 H31C . . 109.5 ?
    H31B C31 H31C . . 109.5 ?
    C29 C32 H32A . . 109.5 ?
    C29 C32 H32B . . 109.5 ?
    H32A C32 H32B . . 109.5 ?
    C29 C32 H32C . . 109.5 ?
    H32A C32 H32C . . 109.5 ?
    H32B C32 H32C . . 109.5 ?
loop_
    _geom_torsion_atom_site_label_1
    _geom_torsion_atom_site_label_2
    _geom_torsion_atom_site_label_3
    _geom_torsion_atom_site_label_4
    _geom_torsion_site_symmetry_1
    _geom_torsion_site_symmetry_2
    _geom_torsion_site_symmetry_3
    _geom_torsion_site_symmetry_4
    _geom_torsion
    _geom_torsion_publ_flag
    C11 N1 C1 C3 . . . . -177.6(3) ?
    C10 N1 C1 C3 . . . . -57.7(3) ?
    Ru1 N1 C1 C3 . . . . 71.2(3) ?
    C11 N1 C1 C2 . . . . -48.4(4) ?
    C10 N1 C1 C2 . . . . 71.4(3) ?
    Ru1 N1 C1 C2 . . . . -159.7(2) ?
    N1 C1 C3 C4 . . . . 135.9(3) ?
    C2 C1 C3 C4 . . . . 6.3(5) ?
    N1 C1 C3 C8 . . . . -47.5(4) ?
    C2 C1 C3 C8 . . . . -177.0(3) ?
    C8 C3 C4 C5 . . . . -1.4(5) ?
    C1 C3 C4 C5 . . . . 175.4(3) ?
    C3 C4 C5 C6 . . . . 0.0(6) ?
    C4 C5 C6 C7 . . . . 0.7(5) ?
    C5 C6 C7 C8 . . . . -0.1(5) ?
    C6 C7 C8 C3 . . . . -1.3(5) ?
    C6 C7 C8 C9 . . . . -178.9(3) ?
    C4 C3 C8 C7 . . . . 2.0(5) ?
    C1 C3 C8 C7 . . . . -174.8(3) ?
    C4 C3 C8 C9 . . . . 179.3(3) ?
    C1 C3 C8 C9 . . . . 2.5(5) ?
    C7 C8 C9 Ru1 . . . . -173.7(2) ?
    C3 C8 C9 Ru1 . . . . 8.9(5) ?
    C12 Ru1 C9 C8 . . . . -162.3(3) ?
    N1 Ru1 C9 C8 . . . . 13.6(3) ?
    Cl1 Ru1 C9 C8 . . . . 101.3(3) ?
    Cl2 Ru1 C9 C8 . . . . -75.1(3) ?
    C15 N2 C12 N3 . . . . 173.5(3) ?
    C13 N2 C12 N3 . . . . 0.0(3) ?
    C15 N2 C12 Ru1 . . . . -16.5(5) ?
    C13 N2 C12 Ru1 . . . . 170.1(2) ?
    C24 N3 C12 N2 . . . . -170.4(3) ?
    C14 N3 C12 N2 . . . . 0.5(4) ?
    C24 N3 C12 Ru1 . . . . 18.1(4) ?
    C14 N3 C12 Ru1 . . . . -171.0(2) ?
    C12 N2 C13 C14 . . . . -0.4(3) ?
    C15 N2 C13 C14 . . . . -174.6(3) ?
    C12 N3 C14 C13 . . . . -0.8(4) ?
    C24 N3 C14 C13 . . . . 170.8(3) ?
    N2 C13 C14 N3 . . . . 0.7(3) ?
    C12 N2 C15 C20 . . . . -82.6(4) ?
    C13 N2 C15 C20 . . . . 90.7(3) ?
    C12 N2 C15 C16 . . . . 99.2(4) ?
    C13 N2 C15 C16 . . . . -87.6(3) ?
    C20 C15 C16 C17 . . . . 1.5(5) ?
    N2 C15 C16 C17 . . . . 179.6(3) ?
    C20 C15 C16 C21 . . . . -177.7(3) ?
    N2 C15 C16 C21 . . . . 0.4(5) ?
    C15 C16 C17 C18 . . . . 0.1(5) ?
    C21 C16 C17 C18 . . . . 179.4(3) ?
    C16 C17 C18 C19 . . . . -1.4(5) ?
    C16 C17 C18 C22 . . . . 178.6(3) ?
    C17 C18 C19 C20 . . . . 1.2(5) ?
    C22 C18 C19 C20 . . . . -178.9(3) ?
    C16 C15 C20 C19 . . . . -1.7(5) ?
    N2 C15 C20 C19 . . . . -179.8(3) ?
    C16 C15 C20 C23 . . . . -178.7(3) ?
    N2 C15 C20 C23 . . . . 3.2(4) ?
    C18 C19 C20 C15 . . . . 0.3(5) ?
    C18 C19 C20 C23 . . . . 177.3(3) ?
    C12 N3 C24 C25 . . . . 80.9(4) ?
    C14 N3 C24 C25 . . . . -89.7(4) ?
    C12 N3 C24 C29 . . . . -104.1(4) ?
    C14 N3 C24 C29 . . . . 85.4(4) ?
    C29 C24 C25 C26 . . . . 7.8(5) ?
    N3 C24 C25 C26 . . . . -177.2(3) ?
    C29 C24 C25 C30 . . . . -168.6(3) ?
    N3 C24 C25 C30 . . . . 6.3(5) ?
    C24 C25 C26 C27 . . . . -3.6(6) ?
    C30 C25 C26 C27 . . . . 173.0(4) ?
    C25 C26 C27 C28 . . . . -1.7(7) ?
    C25 C26 C27 C31 . . . . 179.4(4) ?
    C26 C27 C28 C29 . . . . 3.0(7) ?
    C31 C27 C28 C29 . . . . -178.2(4) ?
    C27 C28 C29 C24 . . . . 1.1(6) ?
    C27 C28 C29 C32 . . . . -175.5(4) ?
    C25 C24 C29 C28 . . . . -6.6(5) ?
    N3 C24 C29 C28 . . . . 178.5(3) ?
    C25 C24 C29 C32 . . . . 169.9(3) ?
    N3 C24 C29 C32 . . . . -5.0(5) ?
loop_
    _geom_hbond_atom_site_label_D
    _geom_hbond_atom_site_label_H
    _geom_hbond_atom_site_label_A
    _geom_hbond_site_symmetry_A
    _geom_hbond_distance_DH
    _geom_hbond_distance_HA
    _geom_hbond_distance_DA
    _geom_hbond_angle_DHA
    _geom_hbond_publ_flag
    C1 H1 Cl2 . 0.98 2.47 3.258(3) 137 no
    C10 H10C Cl1 . 0.96 2.65 3.136(4) 112 no
    C11 H11A Cl2 . 0.96 2.78 3.381(4) 121 no
    C13 H13B Cl1 4 0.97 2.82 3.578(3) 135 yes
    C14 H14A Cl1 4 0.97 2.82 3.576(4) 135 yes
    C9 H9 Cg4 . 0.93 2.61 3.481(4) 157 yes
_shelx_space_group_comment
;
The symmetry employed for this shelxl refinement is uniquely defined
by the following loop, which should always be used as a source of
symmetry information in preference to the above space-group names.
They are only intended as comments.
;
_shelx_estimated_absorpt_T_min     0.811
_shelx_estimated_absorpt_T_max     0.877
_shelx_hkl_file
;
  -2   0   0   -0.83    0.12
   2   0   0   -0.85    0.10
   4   0   0  591.42   13.58
   6   0   0   78.15    2.33
  -6   0   0   73.51    2.32
   8   0   0   89.73    2.87
  -8   0   0   93.13    2.85
 -10   0   0  899.86   20.93
  10   0   0  887.72   20.95
 -12   0   0   80.41    2.87
  12   0   0   76.67    2.92
  14   0   0  171.88    5.29
 -14   0   0  175.78    5.25
  16   0   0    0.17    0.80
  18   0   0    0.98    0.91
  20   0   0   18.58    1.99
  22   0   0   78.68    3.67
  24   0   0   21.60    2.39
  26   0   0   35.64    3.15
  28   0   0   16.48    2.31
  30   0   0   23.42    2.78
  30   0   0   22.78    2.99
  32   0   0    1.85    1.96
  32   0   0   -1.45    1.33
  34   0   0    7.63    2.49
  34   0   0    6.73    2.26
  -1  -1   0   -0.01    0.14
  -1  -1   0    0.16    0.18
   1  -1   0   -0.26    0.11
   1   1   0   -0.07    0.17
  -1   1   0   -0.12    0.16
   1   1   0   -0.24    0.17
  -3  -1   0  176.48    4.10
  -3   1   0  155.43    4.04
  -5  -1   0  117.72    3.28
   5  -1   0  117.44    3.15
   5  -1   0  119.19    3.23
   5   1   0  118.81    3.30
  -5   1   0  118.15    3.23
   5   1   0  122.06    3.28
  -7  -1   0  119.76    3.47
   7  -1   0  122.01    3.36
  -7   1   0  114.36    3.45
   7   1   0  119.94    3.49
  -7   1   0  118.69    3.34
   7   1   0  117.78    3.52
  -9  -1   0  155.82    4.43
   9  -1   0  151.11    4.31
   9   1   0  153.32    4.46
  -9   1   0  157.33    4.32
  -9   1   0  154.30    4.46
  11  -1   0    2.43    0.73
 -11  -1   0    3.81    0.88
 -11   1   0    2.98    0.78
  11   1   0    3.04    0.85
 -11   1   0    3.42    0.87
  13  -1   0   16.06    1.43
 -13  -1   0   20.27    1.72
 -13   1   0   14.81    1.57
  13   1   0   18.57    1.65
 -13   1   0   16.46    1.52
  15  -1   0    1.26    0.79
  15   1   0    0.15    0.75
 -15   1   0    1.16    0.83
  17  -1   0    2.11    0.88
  17   1   0    4.57    1.22
  19  -1   0   -0.70    0.80
  19   1   0    0.26    0.90
  21  -1   0    3.17    1.08
  21   1   0    1.24    1.21
  21   1   0    2.22    1.12
  23  -1   0    2.91    1.23
  23   1   0    3.22    1.28
  23   1   0    2.84    1.36
  25  -1   0    3.05    1.37
  25   1   0    2.21    1.53
  25   1   0    2.26    1.32
  27  -1   0    0.39    1.18
  27   1   0    1.56    1.44
  27   1   0    5.15    1.70
  29  -1   0    8.50    1.88
  29   1   0    3.20    1.92
  29   1   0    1.67    1.52
  31  -1   0    0.02    1.43
  31   1   0    0.78    1.84
  31   1   0   -1.03    1.38
  33  -1   0    1.74    2.08
  33  -1   0    1.25    1.67
  33   1   0   -0.13    1.92
  33   1   0    2.27    1.79
   0  -2   0   -0.66    0.30
   0  -2   0    0.43    0.39
   0   2   0    0.30    0.42
  -2  -2   0   25.16    1.07
   2  -2   0   25.52    1.05
  -2  -2   0   26.69    1.13
  -2   2   0   25.92    1.05
   2   2   0   25.00    1.13
   2   2   0   24.29    1.13
   4  -2   0  449.38   10.57
  -4  -2   0  449.03   10.63
  -4  -2   0  445.78   10.73
   4   2   0  459.58   10.77
   4   2   0  438.04   10.64
  -4   2   0  454.61   10.57
  -6  -2   0   48.02    1.93
   6  -2   0   50.29    1.86
  -6  -2   0   48.37    1.84
   6   2   0   46.51    1.96
  -6   2   0   50.79    1.83
   6   2   0   50.32    1.92
   8  -2   0  195.88    5.25
   8  -2   0  201.82    5.41
  -8   2   0  200.29    5.37
   8   2   0  201.36    5.47
   8   2   0  203.07    5.57
  10  -2   0    3.71    0.80
 -10  -2   0    3.59    0.85
  10   2   0    2.77    0.85
  10   2   0    3.54    0.90
 -10   2   0    3.12    0.75
 -12  -2   0  337.54    8.72
  12  -2   0  313.46    8.37
 -12   2   0  329.50    8.67
  12   2   0  325.32    8.70
  12   2   0  320.55    8.73
  14  -2   0  215.00    6.08
  14   2   0  206.37    6.34
  14   2   0  209.64    6.36
 -14   2   0  217.72    6.28
  16  -2   0    6.66    1.14
  16   2   0    4.62    1.15
  16   2   0    6.86    1.23
  18  -2   0   25.90    2.10
  18   2   0   22.09    2.11
  18   2   0   22.21    2.22
  20  -2   0   19.49    1.86
  20   2   0   20.12    2.11
  20   2   0   15.21    1.90
  22  -2   0   77.41    3.58
  22   2   0   77.29    3.93
  22   2   0   72.97    3.93
  24  -2   0    7.42    1.57
  24   2   0    5.16    1.63
  24   2   0    7.65    1.74
  26  -2   0   87.26    4.23
  26   2   0   82.01    4.37
  26   2   0   93.14    4.75
  28  -2   0   22.06    2.55
  28   2   0   22.18    2.81
  28   2   0   19.74    2.81
  30  -2   0   23.01    2.70
  30   2   0   16.94    2.61
  30   2   0   27.38    3.19
  32  -2   0    8.56    2.12
  32   2   0   10.86    2.52
  32   2   0   10.60    2.27
   1  -3   0   87.15    2.69
  -1  -3   0   84.80    2.63
   1  -3   0   88.64    2.60
  -1   3   0   87.55    2.59
   1   3   0   86.20    2.72
  -3  -3   0    6.84    0.77
   3  -3   0    9.12    0.83
  -3  -3   0   10.50    1.00
   3   3   0    8.87    1.01
  -3   3   0    9.01    0.81
   3   3   0   10.37    0.98
  -5  -3   0  105.92    3.19
   5  -3   0  105.04    3.08
  -5  -3   0   99.10    3.24
   5   3   0  103.09    3.32
  -5   3   0  108.51    3.10
   5   3   0  106.88    3.24
   7  -3   0   29.75    1.56
  -7  -3   0   36.95    1.68
  -7  -3   0   34.18    1.70
   7   3   0   33.08    1.74
   7   3   0   36.88    1.93
  -7   3   0   32.68    1.59
  -9  -3   0   87.40    3.20
   9  -3   0   93.26    3.11
  -9  -3   0   91.21    3.10
  -9   3   0   96.44    3.09
   9   3   0   87.52    3.26
   9   3   0   88.95    3.19
  11  -3   0   10.48    1.31
  11  -3   0   11.76    1.38
  11   3   0    9.82    1.16
  11   3   0   12.60    1.42
 -11   3   0    9.26    1.19
  13  -3   0   47.37    2.22
  13   3   0   48.22    2.53
  13   3   0   48.42    2.49
 -13   3   0   52.80    2.40
  15  -3   0   44.98    2.25
  15   3   0   46.18    2.55
  15   3   0   40.98    2.55
  17  -3   0    0.58    0.85
  17   3   0    3.15    1.13
  17   3   0    1.97    1.07
  19  -3   0   -0.36    0.80
  19   3   0   -0.95    0.81
  19   3   0   -0.27    0.91
  21  -3   0   -0.19    0.88
  21   3   0    0.39    1.11
  21   3   0    0.16    1.14
  23  -3   0   10.03    1.65
  23   3   0   13.37    2.11
  23   3   0    9.70    1.91
  25  -3   0    8.62    1.67
  25   3   0    5.74    1.71
  25   3   0    8.09    1.81
  27  -3   0   17.96    2.21
  27   3   0   14.90    2.48
  27   3   0   11.64    2.24
  29  -3   0    5.45    1.70
  29   3   0    9.04    2.12
  29   3   0    6.84    2.03
  31  -3   0    1.72    1.58
  31   3   0    3.90    1.75
  31   3   0    2.47    1.85
  33  -3   0    0.86    1.60
  33   3   0    1.46    1.97
  33   3   0   -0.28    1.88
   0  -4   0  253.28    6.50
   0  -4   0  249.65    6.42
   0  -4   0  243.08    6.40
   0   4   0  244.46    6.53
   2  -4   0  253.10    6.49
   2  -4   0  255.83    6.65
  -2  -4   0  247.11    6.57
   2   4   0  252.23    6.66
  -2   4   0  255.45    6.47
  -4  -4   0   21.84    1.38
  -4  -4   0   20.09    1.36
   4  -4   0   19.03    1.29
   4   4   0   21.49    1.47
   4   4   0   19.34    1.43
  -4   4   0   21.31    1.27
  -6  -4   0   62.39    2.49
  -6  -4   0   59.54    2.31
   6  -4   0   59.77    2.22
   6   4   0   59.05    2.43
   6   4   0   53.56    2.44
  -6   4   0   57.50    2.19
   8  -4   0  219.88    6.10
  -8  -4   0  230.52    6.26
  -8  -4   0  230.82    6.44
   8   4   0  229.79    6.36
   8   4   0  223.48    6.49
  -8   4   0  227.70    6.12
  10  -4   0   96.29    3.36
 -10  -4   0  102.01    3.47
  10   4   0   99.91    3.54
  10   4   0   95.91    3.68
 -10   4   0   97.89    3.36
  12  -4   0    2.20    0.79
 -12   4   0    3.00    0.84
  12   4   0    1.95    0.90
  12   4   0    1.28    0.88
  14  -4   0   93.85    3.42
  14   4   0   91.28    3.83
  14   4   0   93.40    3.74
  16  -4   0   -0.17    0.75
  16   4   0    0.48    0.97
  16   4   0    0.45    0.88
  18  -4   0  198.88    6.09
  18   4   0  196.19    6.56
  18   4   0  193.36    6.65
  20  -4   0   -0.84    0.83
  20   4   0    0.62    1.06
  20   4   0   -1.79    1.02
  22  -4   0  123.35    4.75
  22   4   0  123.41    5.24
  22   4   0  130.31    5.46
  24  -4   0    1.08    1.08
  24   4   0    0.06    1.42
  24   4   0    0.50    1.31
  26  -4   0   25.61    2.53
  26   4   0   26.76    2.87
  26   4   0   32.60    3.36
  28  -4   0   17.42    2.28
  28   4   0   17.45    2.69
  28   4   0   12.50    2.33
  30  -4   0   21.72    2.64
  30   4   0   22.31    3.07
  30   4   0   21.58    3.14
  32  -4   0   34.24    3.30
  32   4   0   24.81    3.40
  32   4   0   26.61    3.50
   1  -5   0   27.68    1.62
  -1  -5   0   25.50    1.60
   1  -5   0   27.75    1.58
  -1  -5   0   28.21    1.61
   1  -5   0   25.95    1.44
   1   5   0   29.00    1.76
  -3  -5   0    0.57    0.57
   3  -5   0   -0.62    0.55
   3  -5   0   -0.28    0.53
  -3  -5   0   -0.15    0.60
   3   5   0   -0.20    0.70
  -3   5   0   -0.10    0.56
  -5  -5   0    0.14    0.69
  -5  -5   0   -0.05    0.57
   5  -5   0   -0.56    0.67
   5  -5   0    0.24    0.64
   5   5   0   -0.27    0.71
   5   5   0    1.23    0.83
  -5   5   0    0.20    0.57
  -7  -5   0   23.31    1.59
   7  -5   0   25.68    1.56
  -7   5   0   23.72    1.49
   7   5   0   24.30    1.78
   7   5   0   24.91    1.73
   9  -5   0    4.10    0.88
  -9  -5   0    3.71    0.94
   9   5   0    6.01    1.14
  -9   5   0    5.01    0.91
   9   5   0    2.62    0.95
  11  -5   0   -0.48    0.68
  11   5   0    0.33    0.86
 -11   5   0    0.80    0.67
  11   5   0    0.97    0.89
  13  -5   0   16.95    1.64
  13   5   0   17.72    2.04
  13   5   0   22.79    2.02
 -13   5   0   20.75    1.78
  15  -5   0   12.81    1.51
  15  -5   0   12.66    1.45
  15   5   0   12.39    1.61
  15   5   0   10.72    1.72
  17  -5   0    9.64    1.38
  17   5   0    9.75    1.70
  17   5   0    9.76    1.62
  19  -5   0    7.88    1.39
  19   5   0    7.45    1.61
  19   5   0    8.89    1.60
  21  -5   0    3.21    1.17
  21   5   0    3.20    1.50
  21   5   0    0.58    1.22
  23  -5   0    0.77    1.03
  23   5   0    1.27    1.32
  23   5   0   -0.78    1.33
  25  -5   0   -0.45    1.09
  25   5   0   -1.15    1.32
  25   5   0    2.85    1.64
  27  -5   0   14.08    2.05
  27   5   0    9.20    2.19
  27   5   0   13.64    2.49
  29  -5   0   11.78    2.06
  29   5   0    9.35    2.34
  29   5   0   15.66    2.84
  31  -5   0    2.32    1.52
  31   5   0   -0.30    1.88
  31   5   0    2.20    1.81
   0  -6   0    1.34    0.71
   0  -6   0    0.61    0.56
   0  -6   0    0.97    0.71
  -2  -6   0    0.89    0.69
  -2  -6   0   -0.01    0.66
   2  -6   0    0.34    0.66
   2  -6   0    0.07    0.46
   2   6   0    0.62    0.77
  -4  -6   0  349.47    9.45
   4  -6   0  337.41    8.83
   4   6   0  329.94    9.10
  -4   6   0  345.00    8.81
   6  -6   0  175.35    5.12
  -6   6   0  168.66    5.03
   6   6   0  175.11    5.41
   8  -6   0  196.50    5.82
   8   6   0  202.53    6.16
   8   6   0  217.58    6.54
  -8   6   0  202.41    5.82
  10  -6   0   29.56    1.88
 -10   6   0   28.87    1.81
  10   6   0   29.87    2.12
  10   6   0   30.17    2.46
  12  -6   0   46.81    2.41
 -12   6   0   47.94    2.36
  12   6   0   41.13    2.54
  12   6   0   43.08    2.72
  14  -6   0   60.50    2.88
  14   6   0   65.10    3.41
  14   6   0   58.05    3.10
  16  -6   0    3.90    1.03
  16  -6   0    2.22    0.95
  16   6   0    1.02    1.06
  16   6   0    1.27    1.21
  18  -6   0  143.24    4.92
  18   6   0  134.25    5.66
  18   6   0  136.27    5.36
  20  -6   0    9.66    1.56
  20   6   0    7.82    1.81
  20   6   0    8.86    1.75
  22  -6   0   43.49    2.81
  22   6   0   45.92    3.88
  22   6   0   45.98    3.38
  24  -6   0    0.74    1.20
  24   6   0    1.01    1.49
  24   6   0    0.29    1.43
  26  -6   0   14.38    2.11
  26   6   0   18.49    2.85
  26   6   0   12.54    2.38
  28  -6   0    8.07    1.80
  28   6   0    8.09    2.23
  28   6   0    5.18    2.10
  30   6   0   12.83    2.56
  30   6   0    8.16    2.38
  -1  -7   0    5.11    1.04
   1  -7   0    6.83    1.11
   1   7   0    8.11    1.34
   3  -7   0    2.12    0.84
  -3  -7   0    1.56    0.92
   3   7   0    0.25    0.90
   5  -7   0    7.03    1.14
  -5  -7   0    8.90    1.35
  -5   7   0    6.73    1.06
   5   7   0    4.92    1.15
   7  -7   0   88.64    3.30
   7   7   0   82.55    3.55
  -7   7   0   79.71    3.12
   9  -7   0    8.13    1.19
   9   7   0    6.80    1.38
   9   7   0    5.58    1.30
  -9   7   0    6.07    1.09
  11  -7   0    2.16    0.89
  11   7   0    2.95    1.24
  11   7   0    1.83    1.14
  13  -7   0    1.13    0.85
  13   7   0    0.43    1.07
  13   7   0    0.23    0.99
  15  -7   0    0.78    0.99
  15   7   0    2.43    1.23
  15   7   0    0.24    1.24
  17  -7   0   32.31    2.21
  17  -7   0   32.35    2.31
  17   7   0   27.88    2.96
  17   7   0   30.82    2.83
  19  -7   0    2.52    1.19
  19   7   0    4.93    1.57
  19   7   0    3.56    1.73
  21  -7   0    9.51    1.63
  21   7   0   10.25    2.04
  21   7   0   13.05    2.24
  23  -7   0   -0.05    1.15
  23   7   0   -1.40    1.33
  23   7   0    0.41    1.49
  25  -7   0    6.20    1.64
  25   7   0    9.45    2.30
  25   7   0    9.79    2.25
  27   7   0   -2.16    1.54
  27   7   0   -0.11    1.57
  29   7   0    0.20    1.84
  29   7   0    1.40    1.93
   0  -8   0  139.60    4.76
   2  -8   0    1.89    0.89
  -2  -8   0   -0.22    0.80
   2   8   0    1.14    1.03
  -4  -8   0  161.20    5.39
   4  -8   0  153.21    5.07
   4   8   0  162.77    5.54
  -6  -8   0    2.17    1.12
   6  -8   0    2.37    0.97
   6   8   0    2.61    1.14
   8  -8   0   62.67    2.91
   8   8   0   68.32    3.36
  10  -8   0   52.52    2.66
  10   8   0   55.61    3.11
  12  -8   0   10.09    1.45
  12   8   0   13.11    1.87
  12   8   0   10.91    2.00
  14  -8   0   25.05    2.16
  14   8   0   22.15    2.30
  14   8   0   22.11    2.48
  16  -8   0   64.54    3.20
  16   8   0   63.36    4.01
  16   8   0   62.44    3.61
  18  -8   0   69.60    3.49
  18   8   0   73.88    4.05
  18   8   0   78.90    4.45
  20  -8   0    2.79    1.19
  20   8   0    0.21    1.33
  20   8   0    2.01    1.67
  22  -8   0   18.46    2.15
  22   8   0   18.60    2.94
  22   8   0   28.56    3.12
  24   8   0    4.97    2.04
  24   8   0    1.51    1.68
  26   8   0   34.85    3.83
  26   8   0   38.42    3.74
  -1  -9   0    3.13    1.10
   1  -9   0    1.84    1.03
   3  -9   0    6.90    1.29
  -3  -9   0    8.36    1.43
   3   9   0    6.50    1.45
   5  -9   0   12.36    1.62
  -5  -9   0   14.78    1.87
   5   9   0   13.47    1.90
  -7  -9   0   11.53    1.78
   7  -9   0    9.79    1.47
   7   9   0   10.04    1.73
   9  -9   0   14.80    1.73
  -9  -9   0   16.16    2.06
   9   9   0   15.63    2.04
  11  -9   0   -0.07    0.95
  11   9   0    4.43    1.44
  13  -9   0   -0.09    0.94
  13   9   0    1.81    1.34
  15  -9   0    9.98    1.60
  15   9   0    7.85    1.87
  17  -9   0    3.70    1.26
  17   9   0    3.56    1.69
  17   9   0    2.95    1.60
  19  -9   0   10.39    1.81
  19   9   0   14.54    2.35
  19   9   0   10.29    2.31
  21   9   0    2.31    1.77
  21   9   0    2.72    1.73
  23   9   0    2.75    2.11
  23   9   0    3.74    1.86
  25   9   0    2.22    2.01
  25   9   0   -0.01    1.78
   0 -10   0   89.68    3.93
   2 -10   0   12.11    1.68
  -2 -10   0   10.31    1.72
  -4 -10   0   97.53    4.31
   4 -10   0  107.04    4.16
   6 -10   0   13.98    1.75
  -6 -10   0   14.69    2.00
   6  10   0   13.68    2.06
  -8 -10   0   10.97    1.98
   8 -10   0   12.30    1.70
   8  10   0   12.19    2.05
  10 -10   0   39.48    2.62
 -10 -10   0   41.55    3.18
  10  10   0   48.15    3.26
  12 -10   0   13.48    1.79
  12  10   0   11.92    2.10
  14 -10   0   25.74    2.37
  14  10   0   24.75    2.74
  16  10   0   31.75    3.15
  18  10   0   22.96    2.87
  20  10   0    2.94    1.86
  22  10   0   19.57    2.96
  -1 -11   0   10.98    1.84
   1 -11   0   13.71    1.93
   3 -11   0    7.61    1.57
  -3 -11   0    7.35    1.62
   5 -11   0    0.51    1.11
  -5 -11   0    0.43    1.19
  -7 -11   0    2.81    1.48
   7 -11   0    2.68    1.27
   7  11   0    3.25    1.60
   9 -11   0   -0.54    1.07
  -9 -11   0   -0.79    1.24
   9  11   0    1.83    1.50
 -11 -11   0   14.58    2.35
  11  11   0   11.59    2.18
 -13 -11   0    2.03    1.77
  13  11   0   -1.10    1.45
 -15 -11   0   12.45    2.48
  15  11   0   13.82    2.50
  17  11   0    0.35    1.64
  19  11   0    3.17    1.99
   0 -12   0   17.79    2.29
  -2 -12   0    4.15    1.51
   2 -12   0    3.49    1.48
  -4 -12   0   41.89    3.17
  -6 -12   0   18.10    2.43
  -8 -12   0   42.96    3.62
 -10 -12   0   15.11    2.46
  10  12   0   18.06    2.69
 -12 -12   0    8.29    2.23
  12  12   0    7.77    2.08
 -14 -12   0    8.63    2.38
  14  12   0    8.15    2.23
  -7 -13   0   -1.33    1.43
  -9 -13   0    1.67    1.73
  34   0  -1    0.87    1.91
  34   0  -1   -0.08    1.61
  32   0  -1   -2.03    1.30
  32   0  -1   -1.61    1.62
  30   0  -1   -1.44    1.50
  30   0  -1   -1.21    1.20
  28   0  -1    1.87    1.36
  28   0  -1    0.58    1.47
  26   0  -1    0.17    1.13
  24   0  -1   -0.70    0.86
  22   0  -1   -0.56    0.97
  20   0  -1    1.04    0.96
  18   0  -1    0.84    0.85
  16   0  -1    0.20    0.69
 -14   0   1    0.54    0.74
  14   0  -1   -0.13    0.69
 -12   0   1    0.18    0.65
  12   0  -1   -0.16    0.64
 -10   0   1   -0.12    0.56
  10   0  -1   -0.44    0.53
   8   0  -1   -0.09    0.47
  -8   0   1    0.25    0.49
  -6   0   1    0.04    0.38
   6   0  -1   -0.10    0.37
  -4   0   1    0.16    0.22
   4   0  -1   -0.15    0.19
   2   0  -1   -0.04    0.04
   2   0  -1   -0.01    0.06
  -2   0   1   -0.04    0.08
  -2   0   1    0.14    0.07
   0   0   1    0.01    0.06
   0   0  -1    0.14    0.09
  -2   0  -1   -0.36    0.25
   2   0   1   -0.46    0.22
  -2   0  -1   -0.35    0.23
   4   0   1   -1.12    0.42
  -4   0  -1   -0.73    0.39
  -4   0  -1   -1.33    0.37
  -6   0  -1   -1.04    0.51
   6   0   1   -1.36    0.61
  -8   0  -1   -0.44    0.58
   8   0   1    0.58    0.68
  10   0   1    0.85    0.75
 -10   0  -1   -0.06    0.59
  12   0   1    0.53    0.75
 -12   0  -1   -1.23    0.72
 -12   0  -1   -0.52    0.65
  14   0   1   -1.14    0.70
  16   0   1    1.43    0.85
  18   0   1    0.31    0.81
  20   0   1    1.13    0.99
  22   0   1   -1.21    0.88
  24   0   1    1.28    1.13
  26   0   1   -0.44    1.09
  28   0   1    0.27    1.28
  30   0   1   -1.38    1.18
  30   0   1   -1.06    1.61
  32   0   1    1.56    1.66
  32   0   1    1.08    2.04
  35  -1  -1   12.83    2.80
  35  -1  -1    9.16    2.38
  35   1  -1   12.14    2.79
  35   1  -1   14.82    2.65
  33  -1  -1   16.06    2.52
  33  -1  -1   12.42    2.72
  33   1  -1   14.66    2.63
  33   1  -1   15.08    2.82
  31  -1  -1    0.22    1.23
  31   1  -1    1.78    1.54
  31   1  -1    1.53    1.63
  29  -1  -1   28.56    2.90
  29   1  -1   31.05    3.27
  29   1  -1   27.36    2.98
  27  -1  -1    0.89    1.20
  27   1  -1    0.92    1.35
  27   1  -1    4.24    1.60
  25  -1  -1  162.23    5.83
  25   1  -1  160.10    5.98
  25   1  -1  156.38    6.23
  23  -1  -1   13.74    1.76
  23   1  -1   17.14    2.27
  23   1  -1   17.98    2.19
  21  -1  -1   13.28    1.67
  21   1  -1   14.50    1.80
  21   1  -1   12.43    1.81
  19  -1  -1   52.42    2.64
  19   1  -1   52.83    2.98
  19   1  -1   50.55    2.78
  17  -1  -1   40.25    2.17
  17   1  -1   37.95    2.43
  17   1  -1   41.00    2.36
  15  -1  -1  182.04    5.36
  15   1  -1  185.59    5.59
  15   1  -1  176.80    5.63
 -15   1   1  178.48    5.31
 -15   1   1  191.22    5.60
  13  -1  -1   82.42    2.93
 -13  -1   1   86.19    3.07
 -13   1   1   83.49    2.94
  13   1  -1   87.34    3.19
 -13   1   1   87.11    3.11
  13   1  -1   87.81    3.29
 -11  -1   1  428.27   10.85
  11  -1  -1  436.00   10.71
 -11   1   1  445.61   10.87
  11   1  -1  448.95   11.01
  11   1  -1  434.59   10.90
 -11   1   1  441.15   10.70
  -9  -1   1   81.37    2.73
   9  -1  -1   82.00    2.54
   9   1  -1   81.75    2.76
  -9   1   1   82.99    2.54
  -9   1   1   82.18    2.66
   9   1  -1   79.30    2.69
  -7  -1   1  208.75    5.33
   7  -1  -1  203.94    5.12
   7   1  -1  211.86    5.38
   7   1  -1  198.61    5.35
  -7   1   1  205.15    5.23
  -7   1   1  208.16    5.12
   5  -1  -1   18.17    0.77
  -5  -1   1   21.44    0.98
   5   1  -1   19.24    1.01
   5   1  -1   18.72    1.00
  -5   1   1   18.05    0.85
   1  -1  -1    0.04    0.10
  -1  -1   1    0.35    0.20
   1  -1  -1   -0.13    0.11
  -1  -1   1    0.20    0.21
   1   1  -1   -0.28    0.19
  -1   1   1   -0.12    0.14
   1   1  -1   -0.20    0.20
  -3  -1  -1   52.35    1.71
   3  -1   1   51.78    1.71
   3   1   1   50.63    1.75
   3   1   1   49.36    1.61
  -3   1  -1   52.60    1.71
   5  -1   1  222.09    5.51
   5  -1   1  209.71    5.56
  -5  -1  -1  215.46    5.56
   5   1   1  211.14    5.57
  -5   1  -1  219.80    5.57
  -7  -1  -1    8.15    0.99
   7  -1   1    8.69    0.90
  -7   1  -1   11.33    1.10
   7   1   1   10.51    1.09
   9  -1   1   81.94    2.84
  -9  -1  -1   82.74    2.92
  -9   1  -1   79.11    2.88
   9   1   1   81.79    2.92
  -9   1  -1   78.03    2.77
  11  -1   1  874.09   20.68
 -11  -1  -1  880.30   20.78
 -11   1  -1  865.72   20.60
  11   1   1  866.92   20.82
 -11   1  -1  866.70   20.82
  13  -1   1   -0.90    0.70
  13   1   1   -0.88    0.67
 -13   1  -1    0.25    0.74
  15  -1   1  244.84    7.06
  15   1   1  244.14    7.25
  17  -1   1   12.52    1.57
  17   1   1   11.04    1.57
  19  -1   1   35.32    2.41
  19   1   1   37.12    2.59
  21  -1   1    8.56    1.58
  21   1   1    8.38    1.59
  23  -1   1   65.69    3.60
  23   1   1   74.39    4.01
  23   1   1   65.47    3.74
  25  -1   1   84.82    4.32
  25   1   1   91.60    4.46
  25   1   1   92.81    4.81
  27  -1   1   14.48    2.20
  27   1   1   12.30    2.18
  27   1   1   17.80    2.68
  29  -1   1    3.88    1.71
  29   1   1    2.64    1.80
  29   1   1    2.99    1.92
  31  -1   1   16.48    2.58
  31   1   1   19.56    2.86
  31   1   1   13.58    2.72
  33  -1   1   16.65    2.68
  33  -1   1   14.48    3.15
  33   1   1   17.17    2.92
  33   1   1   21.81    3.36
  34  -2  -1    2.05    1.66
  34   2  -1    0.33    1.52
  34   2  -1    1.49    1.91
  32  -2  -1   -0.28    1.31
  32   2  -1    1.92    1.57
  32   2  -1    0.72    1.85
  30  -2  -1   11.30    2.00
  30   2  -1   10.85    2.44
  30   2  -1   11.01    2.21
  28  -2  -1   -0.53    1.14
  28   2  -1    2.94    1.57
  28   2  -1   -0.87    1.39
  26  -2  -1    1.34    1.21
  26   2  -1    2.24    1.36
  26   2  -1   -0.63    1.04
  24  -2  -1   13.41    1.78
  24   2  -1   17.80    2.20
  24   2  -1   17.57    2.30
  22  -2  -1    4.75    1.19
  22   2  -1    3.68    1.27
  22   2  -1    2.03    1.18
  20  -2  -1   15.51    1.60
  20   2  -1   15.58    1.88
  20   2  -1   16.54    2.03
  18  -2  -1   36.31    2.10
  18   2  -1   37.35    2.46
  18   2  -1   37.01    2.45
  16  -2  -1    3.53    0.89
  16   2  -1    3.96    1.01
  16   2  -1    6.26    1.24
  14  -2  -1   53.61    2.26
 -14   2   1   51.15    2.36
  14   2  -1   51.73    2.57
  14   2  -1   49.29    2.46
  12  -2  -1   87.10    2.87
 -12  -2   1   82.10    3.07
  12   2  -1   86.94    3.24
 -12   2   1   82.84    3.00
  12   2  -1   88.75    3.22
  10  -2  -1   96.46    2.98
 -10  -2   1  100.79    3.31
  10   2  -1   95.25    3.31
  10   2  -1   97.38    3.31
 -10   2   1  102.71    3.16
   8  -2  -1  100.78    3.00
   8  -2  -1  100.56    2.90
  -8  -2   1  104.86    3.20
  -8  -2   1  103.13    3.20
   8   2  -1  104.40    3.26
  -8   2   1  103.52    3.02
   8   2  -1   96.37    3.16
  -6  -2   1  308.47    7.75
  -6  -2   1  320.99    7.73
   6  -2  -1  318.60    7.50
   6   2  -1  301.83    7.77
  -6   2   1  312.97    7.48
   6   2  -1  308.32    7.72
  -4  -2   1    6.79    0.78
   4  -2  -1    6.08    0.54
  -4  -2   1    7.41    0.73
   4   2  -1    7.21    0.74
  -4   2   1    6.63    0.54
   4   2  -1    5.64    0.70
  -2  -2   1    3.32    0.51
   2  -2  -1    2.52    0.39
   2  -2  -1    2.71    0.35
  -2  -2   1    3.45    0.57
  -2  -2   1    2.48    0.48
   2   2  -1    2.73    0.54
  -2   2   1    3.29    0.41
   0  -2  -1    0.55    0.32
   0  -2   1    1.49    0.48
   0  -2   1    0.44    0.43
   0  -2  -1    1.35    0.33
   0   2   1    0.40    0.40
   0   2   1    1.32    0.41
   0   2  -1    0.74    0.44
   0   2  -1    1.30    0.44
  -2  -2  -1  399.65    9.48
  -2  -2  -1  405.40    9.62
   2  -2   1  405.93    9.60
   2   2   1  407.42    9.51
  -2   2  -1  396.01    9.57
   2   2   1  410.25    9.65
  -4  -2  -1  169.39    4.54
   4  -2   1  168.39    4.46
  -4  -2  -1  166.39    4.34
   4   2   1  169.68    4.40
  -4   2  -1  165.66    4.44
   4   2   1  161.54    4.53
  -6  -2  -1   85.08    2.69
   6  -2   1   85.11    2.81
  -6   2  -1   85.64    2.79
   6   2   1   81.71    2.87
   6   2   1   88.02    2.76
   8  -2   1    0.45    0.67
  -8  -2  -1    0.74    0.68
   8  -2   1    0.09    0.65
   8   2   1   -0.05    0.58
   8   2   1   -0.34    0.73
  -8   2  -1    0.38    0.62
 -10  -2  -1   85.17    3.11
  10  -2   1   79.12    2.94
  10   2   1   88.67    3.12
  10   2   1   81.42    3.20
 -10   2  -1   87.64    3.13
  12  -2   1   58.19    2.57
  12   2   1   62.36    2.78
 -12   2  -1   66.70    2.75
  12   2   1   59.83    2.70
  14  -2   1    4.19    1.02
  14   2   1    5.16    1.14
  14   2   1    4.70    1.10
  16  -2   1    6.12    1.17
  16   2   1    5.46    1.24
  16   2   1    5.07    1.22
  18  -2   1    3.01    1.08
  18   2   1    5.64    1.27
  18   2   1    4.79    1.31
  20  -2   1   11.34    1.62
  20   2   1   11.39    1.74
  20   2   1   10.15    1.63
  22  -2   1    1.47    0.98
  22   2   1    0.02    1.13
  22   2   1   -2.09    0.99
  24  -2   1    3.62    1.38
  24   2   1    0.11    1.33
  24   2   1    2.84    1.51
  26  -2   1   18.33    2.36
  26   2   1   20.28    2.61
  26   2   1   15.61    2.40
  28  -2   1    0.79    1.39
  28   2   1   -0.14    1.44
  28   2   1   -0.07    1.40
  30  -2   1    2.08    1.48
  30   2   1    4.77    2.09
  30   2   1    5.33    1.87
  32  -2   1    1.13    1.57
  32   2   1    0.91    1.64
  32   2   1    0.70    1.88
  33  -3  -1   52.51    3.68
  33   3  -1   46.94    4.26
  33   3  -1   56.40    4.67
  31  -3  -1    1.72    1.44
  31   3  -1    2.02    1.77
  31   3  -1    2.42    1.80
  29  -3  -1   40.31    2.98
  29   3  -1   38.26    3.53
  29   3  -1   44.12    3.79
  27  -3  -1    1.96    1.21
  27   3  -1    1.61    1.38
  27   3  -1    2.40    1.47
  25  -3  -1   65.16    3.43
  25   3  -1   67.41    3.98
  25   3  -1   70.62    3.98
  23  -3  -1   52.00    2.87
  23   3  -1   58.60    3.47
  23   3  -1   53.00    3.39
  21  -3  -1   39.75    2.37
  21   3  -1   38.86    2.82
  21   3  -1   44.64    2.86
  19  -3  -1   36.45    2.21
  19   3  -1   38.14    2.50
  19   3  -1   36.66    2.51
  17  -3  -1   55.99    2.51
  17   3  -1   53.91    2.86
  17   3  -1   51.88    2.87
  15  -3  -1   21.07    1.54
  15   3  -1   21.00    1.98
  15   3  -1   18.92    1.77
 -15   3   1   23.07    1.72
  13  -3  -1   50.35    2.08
  13   3  -1   46.17    2.42
 -13   3   1   46.23    2.20
  13   3  -1   48.74    2.52
 -11  -3   1  133.96    4.20
 -11  -3   1  136.51    4.34
  11  -3  -1  134.19    3.90
 -11   3   1  135.22    4.08
  11   3  -1  131.99    4.30
  11   3  -1  128.42    4.32
   9  -3  -1    5.29    0.82
  -9  -3   1    7.04    0.97
  -9  -3   1    5.32    0.89
  -9   3   1    5.16    0.80
   9   3  -1    4.14    0.95
   9   3  -1    5.67    1.03
  -7  -3   1  225.81    5.98
  -7  -3   1  220.43    6.04
   7  -3  -1  228.87    5.73
  -7   3   1  230.41    5.73
   7   3  -1  220.38    6.11
   7   3  -1  219.66    6.02
  -5  -3   1   85.16    2.76
   5  -3  -1   86.01    2.50
  -5  -3   1   84.40    2.80
   5   3  -1   85.35    2.79
  -5   3   1   85.73    2.49
   5   3  -1   83.27    2.84
   3  -3  -1  476.48   11.19
  -3  -3   1  465.99   11.26
   3  -3  -1  464.27   10.95
  -3  -3   1  474.52   11.26
   3   3  -1  464.69   11.28
  -3   3   1  465.21   10.94
   1  -3  -1   47.92    1.65
  -1  -3   1   47.57    1.87
   1  -3  -1   50.88    1.75
  -1  -3   1   48.44    1.87
   1  -3  -1   49.29    1.67
   1   3  -1   52.47    1.96
  -1   3   1   45.27    1.78
   1  -3   1  139.34    3.92
  -1  -3  -1  137.26    3.73
   1  -3   1  137.94    3.85
  -1  -3  -1  141.05    3.82
  -1   3  -1  138.34    3.82
   1   3   1  132.54    3.76
   1   3   1  142.74    3.90
  -3  -3  -1  384.09    9.13
   3  -3   1  376.50    9.21
  -3  -3  -1  368.16    9.25
   3   3   1  372.32    9.15
   3   3   1  379.74    9.34
  -3   3  -1  378.52    9.18
   5  -3   1    1.49    0.62
  -5  -3  -1    0.96    0.66
  -5  -3  -1    1.36    0.55
   5   3   1    1.76    0.62
  -5   3  -1    1.97    0.64
   5   3   1    0.76    0.71
   7  -3   1  128.45    3.95
  -7  -3  -1  124.78    3.85
  -7  -3  -1  137.10    4.12
  -7   3  -1  133.32    3.96
   7   3   1  131.83    3.95
   7   3   1  128.29    4.13
  -9  -3  -1   24.43    1.84
   9  -3   1   25.24    1.68
  -9   3  -1   21.99    1.67
   9   3   1   21.38    1.61
   9   3   1   19.85    1.69
  11  -3   1  168.99    4.94
  11  -3   1  157.96    5.00
  11   3   1  158.69    5.19
  11   3   1  165.65    5.06
 -11   3  -1  161.64    4.99
  13  -3   1    7.83    1.19
  13   3   1    7.13    1.32
  13   3   1    6.10    1.18
  15  -3   1   28.96    1.98
  15   3   1   29.82    2.45
  15   3   1   29.41    2.17
  17  -3   1   16.41    1.71
  17   3   1   18.86    2.01
  17   3   1   20.49    2.21
  19  -3   1   74.77    3.46
  19   3   1   77.23    3.89
  19   3   1   76.69    3.74
  21  -3   1   30.35    2.56
  21   3   1   37.78    3.21
  21   3   1   28.79    2.73
  23  -3   1   82.10    4.00
  23   3   1   89.99    4.47
  23   3   1   89.17    4.44
  25  -3   1   35.19    2.99
  25   3   1   38.02    3.49
  25   3   1   39.34    3.45
  27  -3   1    7.38    1.83
  27   3   1    7.99    1.99
  27   3   1    7.29    1.98
  29  -3   1   17.76    2.53
  29   3   1   21.31    3.01
  29   3   1   28.76    3.36
  31  -3   1   10.36    2.25
  31   3   1   12.10    2.62
  31   3   1   10.64    2.36
  32  -4  -1    0.94    1.35
  32   4  -1    0.31    1.77
  32   4  -1    0.85    1.66
  30  -4  -1   18.39    2.38
  30   4  -1   18.32    2.74
  30   4  -1   17.76    2.65
  28  -4  -1   -0.62    0.99
  28   4  -1   -1.20    1.39
  28   4  -1   -0.74    1.36
  26  -4  -1    1.76    1.10
  26   4  -1    2.32    1.54
  26   4  -1    1.04    1.47
  24  -4  -1    0.01    0.98
  24   4  -1    0.46    1.21
  24   4  -1    2.41    1.29
  22  -4  -1   -0.36    0.89
  22   4  -1   -1.15    1.01
  22   4  -1   -0.24    1.07
  20  -4  -1   -0.41    0.82
  20   4  -1    2.49    1.16
  20   4  -1    0.59    1.08
  18  -4  -1    2.57    0.90
  18   4  -1    2.94    1.26
  18   4  -1    4.97    1.24
  16  -4  -1   24.30    1.70
  16   4  -1   20.96    2.11
  16   4  -1   27.95    2.08
  14  -4  -1   19.19    1.52
 -14   4   1   19.77    1.71
  14   4  -1   18.70    1.80
  14   4  -1   22.92    2.08
  12  -4  -1   47.74    2.17
  12   4  -1   46.49    2.44
  12   4  -1   47.87    2.49
 -12   4   1   46.27    2.16
  10  -4  -1    1.81    0.78
 -10  -4   1    2.40    0.77
 -10   4   1    1.81    0.66
  10   4  -1    1.54    0.82
  10   4  -1    1.71    0.86
   8  -4  -1   17.74    1.26
  -8  -4   1   17.48    1.48
  -8  -4   1   21.40    1.46
   8   4  -1   19.66    1.58
   8   4  -1   19.58    1.68
  -8   4   1   21.11    1.31
   6  -4  -1    9.27    0.90
  -6  -4   1   11.42    1.19
  -6  -4   1    8.81    1.07
   6   4  -1    6.53    1.05
   6   4  -1    7.79    1.01
  -6   4   1   10.58    0.91
   4  -4  -1  106.42    3.25
   4  -4  -1   99.10    2.95
  -4  -4   1   98.15    3.21
  -4  -4   1   96.71    3.22
  -4   4   1  101.48    2.94
   4   4  -1   98.74    3.30
   2  -4  -1   36.85    1.54
   2  -4  -1   34.96    1.47
   2  -4  -1   38.57    1.69
  -2  -4   1   36.60    1.69
  -2  -4   1   36.98    1.80
   2   4  -1   33.29    1.79
   0  -4  -1    1.99    0.56
   0  -4  -1    2.32    0.59
   0  -4   1    1.67    0.71
   0  -4   1    2.05    0.69
   0  -4  -1    1.09    0.58
   0   4  -1    3.51    0.73
   0   4  -1    1.24    0.74
   0   4   1    1.73    0.66
   2  -4   1   24.40    1.55
  -2  -4  -1   25.01    1.39
   2  -4   1   25.24    1.50
  -2  -4  -1   25.08    1.34
   2   4   1   24.29    1.55
   2   4   1   25.92    1.52
  -2   4  -1   25.39    1.43
  -4  -4  -1   15.34    1.20
   4  -4   1   12.43    1.18
  -4  -4  -1   15.29    1.31
   4   4   1   10.46    1.16
  -4   4  -1   13.58    1.16
   4   4   1   10.20    1.04
  -6  -4  -1   39.02    1.80
   6  -4   1   38.21    1.88
  -6   4  -1   39.01    1.87
   6   4   1   35.39    1.90
   6   4   1   39.39    2.14
   8  -4   1   33.97    1.99
  -8  -4  -1   35.81    1.83
   8   4   1   32.30    2.00
   8   4   1   29.27    1.79
  -8   4  -1   33.61    1.81
 -10  -4  -1    6.47    1.02
  10  -4   1    4.51    1.01
  10   4   1    6.84    1.14
  10   4   1    7.33    1.28
 -10   4  -1    6.91    1.10
  12  -4   1   -0.34    0.68
  12  -4   1   -0.69    0.64
  12   4   1    0.43    0.78
  12   4   1   -0.01    0.81
 -12   4  -1   -0.93    0.67
  14  -4   1    7.46    1.22
  14   4   1    8.20    1.37
  14   4   1    6.62    1.44
  16  -4   1   24.14    2.02
  16   4   1   32.73    2.36
  16   4   1   26.67    2.51
  18  -4   1    0.98    0.97
  18   4   1    0.05    1.03
  18   4   1    1.54    1.09
  20  -4   1   12.93    1.76
  20   4   1   13.63    2.02
  20   4   1   11.46    1.86
  22  -4   1    3.83    1.35
  22   4   1    1.62    1.25
  22   4   1    2.77    1.42
  24  -4   1    2.76    1.29
  24   4   1    0.22    1.29
  24   4   1    0.23    1.36
  26  -4   1   13.73    2.07
  26   4   1   10.43    2.16
  26   4   1   12.59    2.45
  28  -4   1    8.69    1.93
  28   4   1    9.57    2.32
  28   4   1    8.73    2.26
  30  -4   1    2.27    1.67
  30   4   1    3.55    1.95
  30   4   1    0.92    1.99
  31  -5  -1   20.90    2.51
  31   5  -1   13.26    2.60
  31   5  -1   18.31    3.06
  29  -5  -1   39.98    3.17
  29   5  -1   35.92    3.77
  29   5  -1   30.30    3.31
  27  -5  -1    0.62    1.12
  27   5  -1    0.92    1.58
  27   5  -1   -0.73    1.41
  25  -5  -1   28.74    2.43
  25   5  -1   24.04    2.68
  25   5  -1   25.07    2.87
  23  -5  -1   13.18    1.68
  23   5  -1   12.85    2.12
  23   5  -1   11.30    2.00
  21  -5  -1  102.16    4.08
  21   5  -1  104.88    4.83
  21   5  -1  114.87    4.83
  19  -5  -1    9.23    1.34
  19   5  -1    8.50    1.65
  19   5  -1    8.07    1.56
  17  -5  -1   82.01    3.22
  17   5  -1   77.33    3.77
  17   5  -1   81.53    3.77
  15  -5  -1   64.20    2.66
 -15   5   1   60.02    2.73
  15   5  -1   56.34    3.07
  15   5  -1   57.24    3.00
  13  -5  -1   11.34    1.26
  13   5  -1    9.73    1.48
  13   5  -1   13.31    1.59
 -13   5   1   10.90    1.22
  11  -5  -1   96.60    3.28
  11   5  -1   95.63    3.84
  11   5  -1   93.36    3.63
 -11   5   1   91.91    3.22
   9  -5  -1   10.86    1.12
   9   5  -1    8.36    1.19
   9   5  -1    7.96    1.26
  -9   5   1   12.17    1.12
   7  -5  -1  173.24    4.80
  -7  -5   1  171.27    5.12
   7   5  -1  170.61    5.29
   7   5  -1  166.30    5.17
  -7   5   1  169.65    4.74
  -5  -5   1   -0.65    0.61
   5  -5  -1    0.92    0.64
  -5  -5   1   -0.64    0.57
   5  -5  -1   -0.38    0.53
   5   5  -1   -1.25    0.71
  -5   5   1   -0.05    0.50
   3  -5  -1  142.95    4.29
   3  -5  -1  146.80    4.09
   3  -5  -1  139.14    4.04
  -3  -5   1  136.72    4.30
  -3  -5   1  131.56    4.34
   3   5  -1  142.14    4.45
  -1  -5   1    1.15    0.72
   1  -5  -1    0.82    0.58
   1  -5  -1    0.81    0.52
  -1  -5   1    1.37    0.60
  -1  -5   1    0.05    0.63
   1  -5  -1    0.64    0.60
   1   5  -1    1.06    0.86
   1  -5   1   84.59    3.06
  -1  -5  -1   82.08    2.87
  -1  -5  -1   80.54    2.88
   1  -5   1   80.44    2.93
  -1  -5  -1   82.70    2.86
   1   5   1   81.39    2.94
  -1   5  -1   81.60    2.88
  -3  -5  -1   19.77    1.44
  -3  -5  -1   20.43    1.37
   3  -5   1   19.67    1.54
   3  -5   1   16.89    1.45
  -3   5  -1   19.35    1.40
   3   5   1   19.66    1.60
   3   5   1   21.82    1.52
   5  -5   1  203.99    5.74
  -5  -5  -1  202.67    5.70
  -5  -5  -1  213.16    6.30
   5   5   1  200.44    5.76
  -5   5  -1  198.77    5.66
   5   5   1  198.21    5.99
   7  -5   1  291.39    7.81
  -7  -5  -1  303.10    7.85
   7   5   1  286.17    8.15
  -7   5  -1  291.68    7.78
   7   5   1  290.13    7.90
   9  -5   1  104.29    3.68
  -9  -5  -1  109.99    3.98
   9   5   1  104.40    3.78
  -9   5  -1  107.76    3.68
   9   5   1  102.19    3.98
  11  -5   1   47.82    2.44
 -11   5  -1   48.43    2.39
  11   5   1   43.81    2.50
  11   5   1   48.39    2.81
  13  -5   1   -0.08    0.79
  13   5   1    0.52    0.93
  13   5   1    0.70    0.82
  15  -5   1   98.52    3.91
  15  -5   1   93.46    3.74
  15   5   1   91.62    4.02
  15   5   1  102.20    4.39
  17  -5   1   61.67    3.11
  17   5   1   70.31    3.49
  17   5   1   75.59    3.78
  19  -5   1  181.47    6.04
  19   5   1  180.16    6.39
  19   5   1  172.17    6.62
  21  -5   1   29.15    2.50
  21   5   1   21.95    2.45
  21   5   1   25.86    2.85
  23  -5   1   47.77    3.14
  23   5   1   48.03    3.77
  23   5   1   50.25    3.57
  25  -5   1   21.49    2.39
  25   5   1   13.97    2.29
  25   5   1   17.90    2.75
  27  -5   1   17.19    2.34
  27   5   1    9.68    2.24
  27   5   1   13.30    2.48
  29  -5   1   56.88    3.87
  29   5   1   62.14    4.57
  29   5   1   66.15    4.58
  30   6  -1    2.39    2.01
  30   6  -1    1.63    1.84
  28  -6  -1   -1.24    1.09
  28   6  -1    0.90    1.66
  28   6  -1    2.04    1.66
  26  -6  -1    4.47    1.38
  26   6  -1    5.45    1.81
  26   6  -1    3.96    1.87
  24  -6  -1    1.78    1.16
  24   6  -1    0.30    1.35
  24   6  -1    0.90    1.39
  22  -6  -1    3.41    1.21
  22   6  -1    2.80    1.53
  22   6  -1    1.49    1.48
  20  -6  -1   17.56    1.83
  20   6  -1   14.23    2.06
  20   6  -1   15.73    2.21
  18  -6  -1   10.52    1.43
  18   6  -1   11.08    1.75
  18   6  -1    9.06    1.74
  16  -6  -1    1.01    0.83
  16   6  -1    0.66    1.02
  16   6  -1   -0.03    1.11
  14  -6  -1   20.96    1.76
  14   6  -1   19.54    1.97
 -14   6   1   22.06    1.68
  14   6  -1   19.90    2.19
  12  -6  -1   -0.09    0.65
 -12   6   1    0.87    0.71
  12   6  -1    0.61    1.02
  12   6  -1    1.38    0.97
  10  -6  -1   20.61    1.51
  10   6  -1   23.35    2.01
  10   6  -1   21.16    2.05
 -10   6   1   22.99    1.51
   8  -6  -1   49.74    2.17
  -8   6   1   49.46    2.14
   8   6  -1   52.57    2.65
   6  -6  -1    9.76    1.09
   6   6  -1   11.13    1.42
  -6   6   1   12.74    1.21
   4  -6  -1   -0.18    0.57
  -4  -6   1   -0.11    0.74
   4  -6  -1    0.07    0.38
   4   6  -1   -0.73    0.79
  -2  -6   1    0.93    0.76
   2  -6  -1    0.17    0.60
   2  -6  -1    1.20    0.53
   2  -6  -1    1.29    0.67
   2   6  -1    0.23    0.80
   0  -6   1    1.32    0.66
   0  -6  -1    2.68    0.76
   0  -6  -1    1.83    0.69
   0  -6  -1    2.15    0.70
   0  -6   1    1.66    0.76
   0   6   1    1.81    0.83
   2  -6   1    1.32    0.77
  -2  -6  -1    1.53    0.70
  -2  -6  -1    1.25    0.75
  -2   6  -1    2.33    0.79
   2   6   1    2.63    0.86
   4  -6   1  119.08    3.97
  -4  -6  -1  118.61    3.96
   4   6   1  118.29    4.07
  -4   6  -1  124.54    3.96
   6  -6   1   15.55    1.53
   6   6   1   16.14    1.72
  -6   6  -1   20.03    1.65
   6   6   1   13.70    1.47
   8  -6   1  107.68    3.72
   8   6   1   99.16    3.81
  -8   6  -1   99.54    3.57
   8   6   1   97.04    4.04
  10  -6   1    0.65    0.77
  10   6   1    1.19    0.98
  10   6   1    0.94    0.87
  12  -6   1    2.82    0.98
  12   6   1    1.27    1.01
  12   6   1    2.71    1.10
  14  -6   1    2.15    0.97
  14   6   1    0.27    1.05
  14   6   1   -0.71    0.91
  16  -6   1    0.14    0.97
  16  -6   1    1.19    0.96
  16   6   1   -0.12    1.17
  16   6   1    0.59    1.06
  18  -6   1   31.50    2.52
  18   6   1   26.98    2.76
  18   6   1   37.25    3.00
  20  -6   1   -0.16    1.02
  20   6   1    0.97    1.28
  20   6   1   -0.07    1.32
  22  -6   1    0.93    1.17
  22   6   1    1.15    1.44
  22   6   1   -1.43    1.26
  24  -6   1    3.68    1.53
  24   6   1    0.82    1.44
  24   6   1    2.49    1.65
  26  -6   1    0.57    1.35
  26   6   1    0.88    1.61
  26   6   1    1.71    1.85
  28  -6   1    5.45    1.76
  28   6   1    3.88    2.18
  28   6   1    5.43    2.15
  29   7  -1   38.58    3.87
  29   7  -1   35.36    3.89
  27   7  -1    2.39    1.82
  27   7  -1    2.09    1.81
  25  -7  -1   13.19    1.88
  25   7  -1   13.37    2.50
  25   7  -1   12.56    2.32
  23  -7  -1    4.94    1.34
  23   7  -1    4.11    1.76
  23   7  -1    5.36    1.89
  21  -7  -1   69.83    3.36
  21   7  -1   73.22    4.30
  21   7  -1   79.98    4.30
  19  -7  -1   37.91    2.43
  19   7  -1   37.21    3.09
  19   7  -1   43.06    3.23
  17  -7  -1   31.72    2.19
  17   7  -1   38.42    3.05
  17   7  -1   42.39    3.04
  15  -7  -1   43.25    2.37
  15   7  -1   37.70    2.72
  15   7  -1   37.85    2.86
  13  -7  -1    6.30    1.16
 -13   7   1    6.70    1.34
  13   7  -1    6.69    1.57
  13   7  -1    6.05    1.42
  11  -7  -1   69.21    2.88
  11   7  -1   82.56    3.56
  11   7  -1   62.70    3.40
 -11   7   1   74.14    2.92
   9  -7  -1   42.91    2.14
   9   7  -1   36.21    2.53
  -9   7   1   43.22    2.08
   7  -7  -1  233.03    6.61
  -7   7   1  242.46    6.61
   7   7  -1  243.57    7.27
  -5  -7   1    4.44    1.15
   5  -7  -1    3.64    0.77
   5  -7  -1    3.09    0.87
   5   7  -1    3.47    1.11
  -3  -7   1   94.55    3.72
   3  -7  -1  100.63    3.46
   3   7  -1   97.70    3.89
   1  -7  -1   21.11    1.73
  -1  -7   1   22.50    1.86
  -1  -7  -1   75.92    3.11
   1  -7   1   80.88    3.22
   1   7   1   82.43    3.33
  -3  -7  -1   46.94    2.47
   3  -7   1   49.17    2.48
   3   7   1   53.49    2.65
   5  -7   1   33.21    2.09
   5   7   1   31.74    2.15
  -5   7  -1   35.93    2.05
   7  -7   1   88.45    3.47
   7   7   1   88.93    3.85
   7   7   1   88.07    3.61
   9  -7   1    3.31    1.04
   9   7   1    1.20    1.11
   9   7   1    1.67    1.02
  11  -7   1   28.01    2.07
  11   7   1   31.28    2.46
  11   7   1   30.35    2.71
  13  -7   1    6.44    1.28
  13   7   1    7.10    1.63
  13   7   1    6.97    1.43
  15  -7   1   79.93    3.65
  15   7   1   76.07    3.76
  15   7   1   81.79    4.19
  17  -7   1   -0.38    1.06
  17  -7   1    0.30    1.02
  17   7   1   -0.26    1.18
  17   7   1   -0.22    1.08
  19  -7   1   78.49    3.70
  19   7   1   81.50    4.22
  19   7   1   81.87    4.52
  21  -7   1   10.55    1.77
  21   7   1    9.06    2.13
  21   7   1   10.97    2.09
  23  -7   1   12.29    1.98
  23   7   1   13.92    2.33
  23   7   1   11.87    2.36
  25  -7   1    0.77    1.39
  25   7   1    2.47    1.85
  25   7   1    1.47    1.62
  27   7   1   14.78    2.70
  27   7   1   14.02    2.80
  28   8  -1    0.68    1.72
  28   8  -1   -0.01    1.79
  26   8  -1    8.70    2.34
  26   8  -1    9.80    2.51
  24   8  -1    1.74    1.67
  24   8  -1    3.36    1.87
  22  -8  -1    9.84    1.64
  22   8  -1   10.69    2.16
  22   8  -1   10.26    2.28
  20  -8  -1   -0.85    0.90
  20   8  -1   -0.59    1.36
  20   8  -1    0.68    1.47
  18  -8  -1   11.97    1.67
  18   8  -1   18.90    2.37
  18   8  -1   16.37    2.50
  16  -8  -1   -0.18    0.85
  16   8  -1    0.00    1.15
  16   8  -1    0.56    1.32
  14  -8  -1    3.66    1.02
  14   8  -1    1.64    1.20
  12  -8  -1    5.20    1.14
  12   8  -1    2.89    1.22
  10  -8  -1    0.77    0.78
 -10   8   1    0.15    0.78
  10   8  -1    0.22    1.04
   8  -8  -1   10.99    1.34
  -8  -8   1    9.48    1.62
   8   8  -1    8.22    1.53
   6  -8  -1   77.63    3.06
  -6  -8   1   75.16    3.50
   6   8  -1   77.42    3.60
  -4  -8   1   11.13    1.57
   4  -8  -1   11.99    1.40
   4   8  -1    8.91    1.59
   2  -8  -1    1.30    0.81
  -2  -8   1   -1.14    0.70
   0  -8  -1    3.22    0.95
   0  -8   1    3.09    1.05
  -2  -8  -1    5.83    1.20
   2  -8   1    5.05    1.16
   2   8   1    6.81    1.35
   4  -8   1   32.33    2.11
  -4  -8  -1   32.23    2.25
   4   8   1   29.26    2.34
   6  -8   1    1.41    0.95
   6   8   1    2.01    1.11
   8  -8   1    1.17    0.94
   8   8   1    2.15    1.10
  10  -8   1    4.10    1.16
  10   8   1    3.22    1.37
  10   8   1    3.12    1.28
  12  -8   1    3.72    1.19
  12   8   1    2.48    1.45
  12   8   1    1.99    1.22
  14  -8   1    0.57    1.03
  14   8   1   -0.36    1.10
  14   8   1    1.15    1.43
  16  -8   1    6.65    1.48
  16   8   1    8.87    1.78
  16   8   1    6.90    1.93
  18  -8   1   15.30    1.99
  18   8   1   17.29    2.60
  18   8   1   21.77    2.59
  20  -8   1    3.20    1.38
  20   8   1    2.56    1.62
  20   8   1    3.20    1.50
  22  -8   1   -1.84    1.09
  22   8   1   -1.09    1.50
  22   8   1    0.76    1.49
  24  -8   1    8.78    2.43
  24   8   1    8.20    2.42
  24   8   1    6.92    2.04
  26   8   1    3.13    2.07
  26   8   1    0.42    1.72
  25   9  -1   23.85    3.30
  25   9  -1   13.30    2.63
  23   9  -1    5.71    2.09
  23   9  -1    5.10    2.01
  21   9  -1   33.45    3.33
  21   9  -1   34.53    3.66
  19  -9  -1   14.56    1.86
  19   9  -1   20.35    2.74
  19   9  -1   23.16    2.78
  17  -9  -1   16.51    1.88
  17   9  -1   15.98    2.36
  15  -9  -1   89.20    3.73
  15   9  -1   92.16    4.60
  13  -9  -1   23.37    2.05
  13   9  -1   20.97    2.37
  11  -9  -1   48.04    2.56
  11   9  -1   44.46    3.12
  -9  -9   1   19.32    2.25
   9  -9  -1   22.79    1.94
   9   9  -1   19.78    2.25
   7  -9  -1   90.36    3.62
  -7  -9   1  101.42    4.30
   7   9  -1   97.87    4.31
   5  -9  -1   23.81    1.87
  -5  -9   1   23.84    2.30
   5   9  -1   24.97    2.36
  -3  -9   1   30.53    2.33
   3  -9  -1   26.99    1.97
  -1  -9   1    1.83    1.03
   1  -9  -1    3.59    1.04
   1  -9   1   61.86    3.12
  -1  -9  -1   67.17    3.14
  -3  -9  -1    0.03    0.85
   3  -9   1    0.41    0.94
   3   9   1   -0.81    1.02
  -5  -9  -1  104.03    4.38
   5  -9   1  109.03    4.22
   5   9   1  109.52    4.51
  -7  -9  -1   44.80    2.88
   7  -9   1   45.54    2.64
   7   9   1   45.24    2.91
   9  -9   1   -0.18    0.92
   9   9   1    0.30    1.15
  11  -9   1   37.21    2.51
  11   9   1   38.62    3.05
  13  -9   1    7.07    1.52
  13   9   1    9.74    1.86
  13   9   1    8.41    1.84
  15  -9   1  154.41    5.62
  15   9   1  144.97    6.44
  15   9   1  155.11    6.08
  17  -9   1    0.29    1.09
  17   9   1    1.12    1.40
  17   9   1   -1.13    1.31
  19  -9   1   39.77    3.03
  19   9   1   54.07    3.70
  19   9   1   40.60    3.90
  21  -9   1   17.79    3.22
  21   9   1   23.79    3.27
  21   9   1   18.10    2.68
  23   9   1    7.28    2.15
  23   9   1    8.29    2.40
  24  10  -1    0.39    1.90
  22  10  -1    2.44    1.80
  20  10  -1    2.70    1.89
  18  10  -1    6.83    2.04
  16  10  -1    2.92    1.64
  14 -10  -1   31.88    2.38
  14  10  -1   22.75    2.66
 -12 -10   1    0.67    1.37
  12 -10  -1   -1.22    0.90
  12  10  -1   -0.09    1.38
 -10 -10   1   15.61    2.27
  10 -10  -1   16.49    1.82
  10  10  -1   15.58    2.20
   8 -10  -1   15.13    1.73
  -8 -10   1   16.04    2.19
   8  10  -1   15.14    2.10
   6 -10  -1    0.16    0.91
  -6 -10   1    0.21    1.05
   6  10  -1    0.81    1.20
  -4 -10   1   17.72    2.15
   4 -10  -1   17.32    1.87
  -2 -10   1    2.61    1.26
   2 -10  -1    3.38    1.15
   0 -10  -1   21.41    2.07
   0 -10   1   18.95    2.05
   2 -10   1    5.61    1.35
  -2 -10  -1    5.24    1.29
   4 -10   1    0.64    1.02
  -4 -10  -1    0.64    1.06
   4  10   1   -1.31    1.08
  -6 -10  -1    2.72    1.22
   6 -10   1    0.67    1.01
   6  10   1   -0.08    1.23
   8 -10   1    6.53    1.44
  -8 -10  -1    7.67    1.73
   8  10   1    7.93    1.69
  10 -10   1    7.07    1.48
  10  10   1    7.26    1.85
  12 -10   1   33.62    2.74
  12  10   1   30.93    2.96
  14 -10   1    3.94    1.40
  14  10   1    3.48    1.60
  16 -10   1    9.23    1.80
  16  10   1    8.70    2.08
  18  10   1   -0.55    1.60
  20  10   1    2.74    1.82
  20  10   1    4.37    2.04
  22  10   1    0.69    1.84
  22  10   1    0.48    1.91
  19  11  -1   13.45    2.54
 -17 -11   1   -0.24    1.62
  17  11  -1    1.85    1.88
 -15 -11   1   39.06    3.77
  15  11  -1   32.40    3.31
 -13 -11   1    5.00    1.95
  13  11  -1    3.90    1.86
 -11 -11   1   23.98    2.78
  11  11  -1   24.55    2.75
  -9 -11   1   27.65    2.95
   9  11  -1   22.51    2.75
  -7 -11   1   35.14    3.09
   7 -11  -1   37.65    2.55
   7  11  -1   33.68    3.14
  -5 -11   1    9.88    1.84
   5 -11  -1    8.94    1.56
  -3 -11   1   57.67    3.44
   3 -11  -1   53.57    2.98
   1 -11  -1    8.51    1.61
  -1 -11   1   11.22    1.87
   1 -11   1  123.25    4.97
  -1 -11  -1  124.01    4.89
  -3 -11  -1   12.89    1.93
   3 -11   1   11.53    1.85
   5 -11   1   18.49    2.17
  -5 -11  -1   16.71    2.22
  -7 -11  -1   43.31    3.18
   7 -11   1   41.42    2.81
   7  11   1   43.11    3.41
  -9 -11  -1   -0.85    1.31
   9 -11   1    0.02    1.13
   9  11   1    0.85    1.38
 -11 -11  -1   44.56    3.73
  11  11   1   44.75    3.59
 -13 -11  -1    1.95    1.58
  13  11   1    7.04    2.01
  15  11   1   39.23    3.66
  17  11   1    1.65    1.76
  19  11   1   14.64    2.70
 -16 -12   1    0.00    1.83
  16  12  -1   -0.99    1.79
 -14 -12   1   24.76    3.14
  14  12  -1   26.82    3.19
 -12 -12   1    2.01    1.77
  12  12  -1    1.29    1.78
 -10 -12   1    1.64    1.60
  10  12  -1   -0.19    1.63
  -8 -12   1    3.03    1.69
  -6 -12   1    1.12    1.32
  -4 -12   1    3.75    1.55
  -2 -12   1    0.08    1.26
   0 -12   1   23.41    2.55
   0 -12  -1   23.53    2.37
  -2 -12  -1   -0.07    1.19
   2 -12   1    0.86    1.33
   4 -12   1    2.88    2.31
  -4 -12  -1    3.55    1.50
  -6 -12  -1   -0.86    1.27
  -8 -12  -1    6.76    1.85
   8  12   1    3.84    1.82
 -10 -12  -1    1.93    1.69
  10  12   1   -0.17    1.77
 -12 -12  -1   12.19    2.50
  12  12   1   13.03    2.51
 -14 -12  -1    1.32    1.83
  14  12   1    7.80    2.15
  -9 -13   1    3.05    1.78
  -7 -13   1   37.41    3.51
  -5 -13   1   -1.16    1.46
  36   0  -2   10.31    2.34
  36   0  -2   13.64    2.95
  34   0  -2    3.14    2.14
  34   0  -2    3.10    1.63
  32   0  -2   14.49    2.37
  32   0  -2   13.18    2.49
  30   0  -2    3.00    1.67
  30   0  -2    1.61    1.35
  28   0  -2  119.08    5.06
  28   0  -2  111.43    5.31
  26   0  -2   14.94    1.94
  24   0  -2  103.50    4.22
  22   0  -2   18.72    1.90
  20   0  -2   -0.36    0.75
  18   0  -2    5.13    1.07
 -16   0   2   43.46    2.14
  16   0  -2   44.37    2.19
  14   0  -2  390.72   10.03
 -14   0   2  405.86   10.06
 -12   0   2   65.01    2.37
  12   0  -2   65.69    2.40
  10   0  -2   85.64    2.65
 -10   0   2   83.47    2.63
   8   0  -2   23.79    1.13
  -8   0   2   22.53    1.11
  -6   0   2  541.45   12.38
   6   0  -2  537.79   12.38
   4   0  -2   -0.09    0.19
  -4   0   2   -0.21    0.16
   4   0  -2    0.00    0.15
  -4   0   2   -0.18    0.19
  -2   0   2    0.07    0.14
   2   0  -2   -0.05    0.09
   2   0  -2    0.04    0.14
  -2   0   2   -0.08    0.10
   0   0   2    0.19    0.22
   0   0  -2    0.09    0.23
   2   0   2  109.51    3.02
  -2   0  -2  113.64    3.01
   2   0   2  109.34    3.06
  -2   0  -2  112.33    3.06
   4   0   2  206.74    5.33
  -4   0  -2  204.67    5.39
  -4   0  -2  204.92    5.31
  -6   0  -2   54.54    2.09
   6   0   2   56.05    2.20
  -6   0  -2   56.30    2.23
   8   0   2  612.98   14.93
  -8   0  -2  608.07   14.99
  -8   0  -2  632.54   14.90
 -10   0  -2   -0.05    0.63
 -10   0  -2    1.16    0.73
  10   0   2   -0.06    0.75
  12   0   2  665.73   16.41
  14   0   2   16.55    1.64
  16   0   2   73.01    3.38
  18   0   2    3.17    1.12
  20   0   2   34.37    2.82
  22   0   2   60.62    3.55
  24   0   2   -0.97    1.07
  26   0   2   47.54    3.46
  28   0   2    8.88    2.11
  30   0   2    8.85    2.24
  30   0   2    7.83    2.34
  32   0   2    0.67    1.74
  32   0   2    3.91    2.21
  35  -1  -2    2.55    2.10
  35  -1  -2    1.43    1.61
  35   1  -2    4.04    1.93
  35   1  -2    1.20    1.54
  33  -1  -2   -0.62    1.81
  33  -1  -2    2.66    1.51
  33   1  -2    2.47    1.87
  33   1  -2    2.42    1.50
  31  -1  -2    2.62    1.45
  31   1  -2    0.65    1.67
  31   1  -2    2.63    1.45
  29  -1  -2    3.23    1.44
  29   1  -2    1.72    1.61
  29   1  -2    6.22    1.72
  27  -1  -2   -0.22    1.10
  27   1  -2   -0.63    0.99
  27   1  -2    1.44    1.38
  25  -1  -2    0.99    0.98
  25   1  -2    1.51    1.17
  25   1  -2    0.29    1.26
  23  -1  -2   14.70    1.73
  23   1  -2   13.87    1.79
  23   1  -2   14.78    2.09
  21  -1  -2    3.61    1.01
  21   1  -2    2.00    1.14
  21   1  -2    2.76    1.12
  19  -1  -2    1.28    0.81
  19   1  -2    0.31    0.88
  19   1  -2    0.47    0.96
  17  -1  -2    0.91    0.73
  17   1  -2    2.12    0.94
  17   1  -2    1.31    0.87
 -17   1   2    1.81    0.76
 -15  -1   2   38.27    1.98
  15  -1  -2   42.32    1.98
 -15   1   2   43.26    2.02
  15   1  -2   41.80    2.43
  15   1  -2   38.27    2.05
  13  -1  -2   48.29    1.96
 -13  -1   2   48.64    2.09
  13   1  -2   43.38    2.25
 -13   1   2   49.19    1.95
  13   1  -2   48.52    2.15
  11  -1  -2  193.11    5.19
 -11  -1   2  200.64    5.44
  11   1  -2  198.65    5.56
 -11   1   2  200.85    5.20
  11   1  -2  206.05    5.50
  -9  -1   2  122.23    3.46
   9  -1  -2  120.15    3.21
   9   1  -2  117.44    3.55
  -9   1   2  120.06    3.21
   9   1  -2  112.01    3.43
   7  -1  -2   10.59    0.67
  -7  -1   2   11.45    0.91
  -7  -1   2   14.17    1.02
   7   1  -2   11.08    0.92
  -7   1   2   10.38    0.66
   7   1  -2    9.18    0.85
  -5  -1   2  480.26   11.11
   5  -1  -2  466.68   10.76
  -5  -1   2  494.30   11.16
   5   1  -2  468.70   11.12
   5   1  -2  476.01   11.15
  -3  -1   2   -1.03    0.33
  -3  -1   2   -0.37    0.32
   3   1  -2   -0.94    0.30
  -1  -1  -2   11.67    0.77
   1  -1   2   10.53    0.82
  -1   1  -2    9.87    0.77
   1   1   2   11.92    0.60
   3  -1   2   -0.26    0.53
  -3  -1  -2   -1.02    0.45
   3   1   2    0.19    0.52
  -3   1  -2   -0.45    0.49
   5  -1   2  250.12    6.43
   5  -1   2  254.87    6.54
  -5  -1  -2  240.38    6.43
   5   1   2  254.80    6.50
  -5   1  -2  249.90    6.49
  -7  -1  -2   -0.52    0.56
   7  -1   2   -0.06    0.68
   7  -1   2    0.72    0.63
  -7   1  -2    0.16    0.61
   7   1   2    0.55    0.68
  -9  -1  -2   11.63    1.22
   9  -1   2    7.44    1.03
  -9   1  -2    7.97    1.10
   9   1   2   12.30    1.34
 -11  -1  -2   27.18    2.02
  11  -1   2   25.66    1.79
  11   1   2   29.07    1.86
 -11   1  -2   27.43    1.92
  13  -1   2   17.93    1.76
  13   1   2   15.38    1.57
  15  -1   2    7.86    1.35
  15   1   2    6.44    1.28
  17  -1   2    0.67    0.94
  17   1   2    0.78    0.97
  19  -1   2    1.23    0.99
  19   1   2    2.14    1.26
  21  -1   2   18.36    2.21
  21   1   2   15.03    2.05
  23  -1   2   -1.08    1.11
  23   1   2    0.96    1.19
  23   1   2    0.92    1.21
  25  -1   2    0.18    1.29
  25   1   2   -0.35    1.26
  25   1   2   -0.01    1.34
  27  -1   2   20.24    2.67
  27   1   2   15.03    2.39
  27   1   2   20.55    2.74
  29  -1   2    0.08    1.42
  29   1   2    0.68    1.46
  29   1   2   -0.87    1.58
  31  -1   2    1.77    1.70
  31   1   2   -0.05    1.95
  31   1   2    1.54    1.88
  34  -2  -2   -0.36    1.33
  34   2  -2   -0.12    1.69
  34   2  -2   -2.17    1.80
  32  -2  -2   29.83    2.92
  32   2  -2   27.66    3.31
  32   2  -2   19.93    2.76
  30  -2  -2    0.56    1.20
  30   2  -2    0.34    1.46
  30   2  -2   -0.98    1.42
  28  -2  -2   70.58    3.64
  28   2  -2   64.31    3.99
  28   2  -2   66.46    3.95
  26  -2  -2   68.68    3.48
  26   2  -2   69.41    3.78
  26   2  -2   79.51    4.28
  24  -2  -2   32.73    2.32
  24   2  -2   31.17    2.89
  24   2  -2   31.49    2.79
  22  -2  -2  130.44    4.56
  22   2  -2  125.72    5.09
  22   2  -2  127.93    4.97
  20  -2  -2   18.40    1.66
  20   2  -2   18.43    2.02
  20   2  -2   22.73    2.27
  18  -2  -2  193.83    5.66
  18   2  -2  189.21    6.04
  18   2  -2  194.43    6.20
  16  -2  -2    2.10    0.72
  16   2  -2    2.14    0.92
  16   2  -2    3.08    1.01
 -16   2   2    1.58    0.80
 -14  -2   2  405.08   10.26
  14  -2  -2  397.52    9.86
  14   2  -2  395.88   10.31
  14   2  -2  384.20   10.33
 -14   2   2  397.90   10.11
 -12  -2   2   69.36    2.68
  12  -2  -2   69.12    2.31
  12   2  -2   66.63    2.65
 -12   2   2   67.05    2.45
  12   2  -2   59.87    2.60
 -10  -2   2  113.73    3.48
  10  -2  -2  105.88    3.05
 -10  -2   2  111.70    3.48
  10   2  -2  105.70    3.47
 -10   2   2  109.72    3.22
  10   2  -2  109.44    3.54
   8  -2  -2   24.29    1.04
  -8  -2   2   23.77    1.41
  -8  -2   2   24.57    1.39
   8   2  -2   24.27    1.49
  -8   2   2   24.81    1.14
   8   2  -2   25.29    1.49
   6  -2  -2    9.00    0.65
   6   2  -2    8.45    0.90
  -6   2   2    8.45    0.63
   6   2  -2    9.19    0.93
  -4  -2   2  147.28    3.98
   4  -2  -2  149.06    3.53
  -4  -2   2  148.77    3.98
   4   2  -2  152.19    4.02
  -4   2   2  147.84    3.53
   2  -2  -2   59.05    1.66
   2  -2  -2   56.38    1.66
  -2  -2   2   57.82    1.97
  -2  -2   2   59.94    1.95
   2   2  -2   55.86    1.94
  -2   2   2   58.94    1.70
   2   2  -2   58.30    1.98
   0  -2   2   68.94    2.17
   0  -2  -2   66.59    1.87
   0  -2   2   67.47    2.19
   0  -2  -2   67.71    2.02
   0   2  -2   65.45    2.15
   0   2   2   68.74    2.08
   0   2   2   66.49    1.90
  -2  -2  -2   27.80    1.38
   2  -2   2   28.45    1.47
  -2  -2  -2   33.74    1.19
   2   2   2   28.98    1.22
  -2   2  -2   29.08    1.42
   2   2   2   30.93    1.41
   4  -2   2  154.81    4.45
  -4  -2  -2  159.06    4.19
  -4  -2  -2  158.70    4.45
  -4   2  -2  165.32    4.45
   4   2   2  153.61    4.44
   4   2   2  158.70    4.23
   6  -2   2  235.35    6.44
  -6  -2  -2  231.64    6.39
   6   2   2  243.39    6.48
   6   2   2  247.36    6.25
  -6   2  -2  240.97    6.40
   8  -2   2  484.73   12.03
  -8  -2  -2  491.45   12.02
   8  -2   2  479.29   11.87
  -8   2  -2  500.72   12.02
   8   2   2  470.00   12.03
   8   2   2  457.51   11.78
  10  -2   2    2.94    1.04
  10   2   2    3.39    0.96
  10   2   2    3.74    0.94
 -10   2  -2    3.96    1.16
  12  -2   2  133.68    4.48
  12   2   2  137.41    4.54
  12   2   2  137.13    4.71
  14  -2   2   26.83    1.97
  14   2   2   28.01    2.05
  14   2   2   28.61    1.97
  16  -2   2   35.60    2.37
  16   2   2   39.48    2.61
  16   2   2   37.08    2.49
  18  -2   2   28.41    2.36
  18   2   2   23.43    2.40
  18   2   2   16.67    1.95
  20  -2   2   68.38    3.48
  20   2   2   68.99    3.73
  20   2   2   63.75    3.55
  22  -2   2  117.68    4.86
  22   2   2  107.89    4.87
  22   2   2  108.65    4.95
  24  -2   2    8.58    1.84
  24   2   2    8.95    1.91
  24   2   2    8.15    1.86
  26  -2   2   41.54    3.09
  26   2   2   43.84    3.67
  26   2   2   45.58    3.84
  28  -2   2    4.31    1.73
  28   2   2    3.53    1.80
  28   2   2    3.29    1.90
  30  -2   2   19.74    2.79
  30   2   2   23.67    3.17
  30   2   2   21.76    3.12
  35  -3  -2    5.08    1.76
  35   3  -2    0.08    1.72
  35   3  -2    2.12    2.18
  33  -3  -2    2.08    1.40
  33   3  -2    2.13    1.74
  33   3  -2    3.51    1.96
  31  -3  -2    7.31    1.72
  31   3  -2    4.57    1.82
  31   3  -2    2.81    1.92
  29  -3  -2   46.36    3.09
  29   3  -2   42.91    3.73
  29   3  -2   43.42    3.82
  27  -3  -2    4.67    1.34
  27   3  -2    5.44    1.76
  27   3  -2    2.78    1.52
  25  -3  -2   -0.20    0.85
  25   3  -2    3.50    1.48
  25   3  -2   -0.12    1.21
  23  -3  -2   50.98    2.67
  23   3  -2   49.47    3.06
  23   3  -2   50.60    3.29
  21  -3  -2   18.03    1.69
  21   3  -2   14.18    1.85
  21   3  -2   16.98    2.07
  19  -3  -2   13.07    1.40
  19   3  -2   17.27    1.96
  19   3  -2   13.66    1.74
  17  -3  -2   -0.09    0.62
  17   3  -2   -0.42    0.87
  17   3  -2   -0.51    0.85
 -17   3   2    0.70    0.73
  15  -3  -2    0.74    0.61
 -15   3   2   -0.79    0.56
  15   3  -2   -0.53    0.80
  15   3  -2    0.54    0.77
 -13  -3   2    6.54    1.17
  13  -3  -2    8.69    1.05
  13   3  -2    4.49    1.05
  13   3  -2    5.78    1.11
 -13   3   2    5.08    0.87
 -11  -3   2    0.45    0.75
 -11  -3   2   -0.52    0.57
  11  -3  -2   -0.31    0.46
  11   3  -2   -0.95    0.71
  11   3  -2    0.89    0.70
 -11   3   2    0.12    0.52
  -9  -3   2    9.66    1.11
  -9  -3   2   11.45    1.20
   9  -3  -2    9.55    0.87
   9   3  -2    9.13    1.08
   9   3  -2    9.81    1.15
  -9   3   2    8.01    0.81
  -7  -3   2   31.76    1.56
   7  -3  -2   32.65    1.27
  -7  -3   2   30.40    1.62
   7   3  -2   30.52    1.68
  -7   3   2   31.79    1.27
   7   3  -2   35.94    1.79
   5  -3  -2  134.40    3.35
  -5  -3   2  125.38    3.78
  -5  -3   2  131.10    3.79
  -5   3   2  129.58    3.32
   5   3  -2  130.29    3.87
   3  -3  -2  171.21    4.22
   3  -3  -2  175.45    4.45
   3  -3  -2  165.00    4.30
  -3  -3   2  165.07    4.62
  -3  -3   2  174.97    4.72
   3   3  -2  168.30    4.71
   1  -3  -2  232.11    5.78
  -1  -3   2  237.76    6.09
   1  -3  -2  229.97    5.81
  -1  -3   2  238.78    6.09
   1   3  -2  243.04    6.06
  -1   3   2  228.28    5.81
  -1   3   2  225.85    5.85
   1   3  -2  229.48    6.11
   1  -3   2  402.48    9.86
  -1  -3  -2  407.30    9.76
   1  -3   2  409.28    9.92
  -1  -3  -2  392.40    9.56
   1   3   2  393.49    9.59
  -1   3  -2  389.22    9.79
   1   3   2  419.93    9.84
  -3  -3  -2   44.39    1.90
  -3  -3  -2   43.50    1.64
   3  -3   2   43.32    1.95
   3   3   2   43.49    1.96
  -3   3  -2   42.61    1.87
   3   3   2   40.90    1.71
   5  -3   2  106.98    3.52
  -5  -3  -2  111.83    3.57
  -5  -3  -2  107.30    3.27
   5   3   2  112.40    3.61
   5   3   2  109.11    3.35
  -5   3  -2  111.68    3.50
  -7  -3  -2    3.99    0.95
  -7  -3  -2    2.58    0.68
   7  -3   2    2.68    0.86
   7   3   2    3.00    0.79
   7   3   2    4.26    1.08
  -7   3  -2    3.12    0.83
   9  -3   2   80.24    3.30
   9   3   2   83.19    3.05
   9   3   2   84.37    3.34
  -9   3  -2   80.93    3.13
  11  -3   2  136.28    4.50
  11  -3   2  133.79    4.59
 -11   3  -2  146.86    4.96
  11   3   2  136.91    4.48
  11   3   2  131.28    4.68
  13  -3   2   48.80    2.49
  13   3   2   54.55    2.66
  13   3   2   45.58    2.64
  15  -3   2    2.99    1.09
  15   3   2    1.49    1.11
  15   3   2    1.27    0.90
  17  -3   2    0.43    0.99
  17   3   2    0.16    1.03
  17   3   2    0.17    1.08
  19  -3   2   32.25    2.64
  19   3   2   35.54    2.89
  19   3   2   36.13    3.05
  21  -3   2   10.29    1.70
  21   3   2    9.13    1.83
  21   3   2    8.75    1.81
  23  -3   2    1.43    1.24
  23   3   2    0.18    1.28
  23   3   2   -2.42    1.17
  25  -3   2   -0.24    1.21
  25   3   2   -1.85    1.38
  25   3   2   -0.88    1.35
  27  -3   2    8.05    1.89
  27   3   2    4.63    1.93
  27   3   2    5.51    1.87
  29  -3   2   -0.72    1.48
  29   3   2   -1.53    1.60
  29   3   2   -0.54    1.62
  31  -3   2    3.07    1.82
  31   3   2    2.51    1.99
  31   3   2    1.64    1.84
  34  -4  -2    1.53    1.60
  34   4  -2   -2.73    1.66
  34   4  -2   -1.39    1.76
  32  -4  -2   43.27    3.19
  32   4  -2   37.55    3.88
  32   4  -2   44.58    4.16
  30  -4  -2   -0.05    1.19
  30   4  -2    2.98    1.87
  30   4  -2    1.11    1.52
  28  -4  -2   39.25    2.64
  28   4  -2   34.43    3.32
  28   4  -2   28.56    3.05
  26  -4  -2   24.65    2.29
  26   4  -2   28.35    2.97
  26   4  -2   28.41    3.05
  24  -4  -2   43.97    2.59
  24   4  -2   44.08    3.21
  24   4  -2   37.59    3.18
  22  -4  -2  118.78    4.38
  22   4  -2  130.71    5.24
  22   4  -2  131.66    5.28
  20  -4  -2   48.98    2.43
  20   4  -2   50.59    3.02
  20   4  -2   45.01    2.99
  18  -4  -2   91.89    3.32
  18   4  -2   90.41    4.02
  18   4  -2   88.34    3.92
  16  -4  -2   51.95    2.23
 -16   4   2   48.08    2.36
  16   4  -2   52.21    2.80
  16   4  -2   47.05    2.77
  14  -4  -2  124.25    3.85
  14   4  -2  129.29    4.51
 -14   4   2  130.91    4.04
  14   4  -2  121.84    4.52
  12  -4  -2   16.23    1.23
  12   4  -2   18.62    1.75
 -12   4   2   19.09    1.32
  12   4  -2   12.37    1.42
  10  -4  -2  208.27    5.48
 -10  -4   2  199.39    5.87
 -10  -4   2  223.47    6.50
  10   4  -2  210.54    6.05
  10   4  -2  203.82    6.10
 -10   4   2  202.68    5.47
   8  -4  -2    6.24    0.75
  -8  -4   2    5.67    0.96
  -8  -4   2    6.12    0.99
   8   4  -2    7.15    1.11
   8   4  -2    8.19    1.20
  -8   4   2    6.68    0.74
  -6  -4   2  487.57   12.18
  -6  -4   2  511.92   12.20
   6  -4  -2  490.45   11.62
   6   4  -2  493.15   12.21
  -6   4   2  487.51   11.61
   4  -4  -2   58.22    1.94
  -4  -4   2   57.23    2.30
  -4  -4   2   56.76    2.27
   4  -4  -2   56.98    2.11
   4  -4  -2   55.07    1.85
  -4  -4   2   58.15    2.40
   4   4  -2   55.11    2.31
   2  -4  -2   36.28    1.51
   2  -4  -2   33.16    1.40
  -2  -4   2   35.63    1.81
  -2  -4   2   37.62    1.82
   2  -4  -2   35.38    1.44
   2   4  -2   29.20    1.80
   0  -4   2   92.37    3.05
   0  -4  -2   90.37    2.76
   0  -4  -2   87.44    2.81
   0  -4   2   83.29    2.99
   0   4  -2   91.70    3.00
   0   4   2   89.66    2.83
   0   4   2   86.83    2.92
   2  -4   2    9.13    1.08
   2  -4   2    9.86    1.16
  -2  -4  -2    9.81    0.89
  -2  -4  -2    8.60    1.03
   2   4   2    8.39    1.07
  -2   4  -2    9.78    1.07
   2   4   2   10.85    1.03
   4  -4   2   67.87    2.64
  -4  -4  -2   64.13    2.55
  -4  -4  -2   68.49    2.35
   4   4   2   60.54    2.37
  -4   4  -2   66.73    2.54
   4   4   2   66.45    2.70
  -6  -4  -2    2.05    0.80
  -6  -4  -2    1.84    0.64
   6  -4   2    1.49    0.82
   6   4   2    1.61    0.72
  -6   4  -2   -0.20    0.74
   6   4   2    1.87    0.93
  -8  -4  -2   36.28    1.83
   8  -4   2   37.94    2.09
   8   4   2   38.01    1.99
  -8   4  -2   37.87    2.03
   8   4   2   35.79    2.13
  10  -4   2   10.78    1.40
  10   4   2   13.39    1.65
  10   4   2   14.31    1.51
 -10   4  -2   16.74    1.66
  12  -4   2   81.94    3.50
  12  -4   2   88.30    3.42
  12   4   2   83.49    3.72
  12   4   2   89.59    3.51
  14  -4   2   68.32    3.12
  14   4   2   71.39    3.25
  14   4   2   68.19    3.40
  16  -4   2  107.14    4.19
  16   4   2  109.66    4.40
  16   4   2  107.61    4.57
  18  -4   2   64.27    3.28
  18   4   2   68.04    3.69
  18   4   2   67.63    3.52
  20  -4   2   99.93    4.32
  20   4   2   97.73    4.53
  20   4   2   99.27    4.80
  22  -4   2   55.11    3.34
  22   4   2   57.73    3.71
  22   4   2   53.22    3.57
  24  -4   2   22.37    2.43
  24   4   2   16.61    2.56
  24   4   2   16.41    2.50
  26  -4   2   29.62    2.93
  26   4   2   27.27    3.18
  26   4   2   27.07    3.05
  28  -4   2    0.35    1.36
  28   4   2    0.38    1.50
  28   4   2    1.79    1.74
  30  -4   2   51.44    3.82
  30   4   2   55.95    4.91
  30   4   2   50.72    4.51
  33   5  -2    1.59    1.97
  33   5  -2    0.05    1.80
  31  -5  -2    5.84    1.63
  31   5  -2    2.60    1.84
  31   5  -2    4.46    2.01
  29  -5  -2    1.89    1.22
  29   5  -2    0.15    1.50
  29   5  -2    0.12    1.50
  27  -5  -2    2.54    1.23
  27   5  -2    2.42    1.48
  27   5  -2    3.97    1.70
  25  -5  -2    0.87    0.98
  25   5  -2    0.07    1.24
  25   5  -2   -0.48    1.16
  23  -5  -2   -0.72    0.83
  23   5  -2    0.11    1.19
  23   5  -2    3.40    1.49
  21  -5  -2   24.75    2.07
  21   5  -2   28.50    2.78
  21   5  -2   32.94    2.87
  19  -5  -2   25.63    1.83
  19   5  -2   30.96    2.66
  19   5  -2   34.19    2.86
  17  -5  -2    4.51    0.93
 -17   5   2    5.23    1.19
  17   5  -2    4.93    1.34
  17   5  -2    6.90    1.39
  15  -5  -2    1.76    0.75
 -15   5   2    3.23    0.90
  15   5  -2    1.70    1.00
  15   5  -2    0.09    0.91
  13  -5  -2   12.03    1.20
 -13   5   2   13.44    1.27
  13   5  -2   13.54    1.53
  13   5  -2   11.21    1.57
  11  -5  -2    0.70    0.59
  11   5  -2    0.53    0.85
  11   5  -2    0.78    0.81
 -11   5   2    0.33    0.59
   9  -5  -2   -0.06    0.53
   9   5  -2   -0.66    0.78
  -9   5   2   -0.07    0.49
   9   5  -2   -0.49    0.77
   7  -5  -2   19.47    1.27
  -7  -5   2   25.62    1.83
   7   5  -2   17.49    1.58
  -7   5   2   18.26    1.16
  -5  -5   2    1.64    0.87
   5  -5  -2    2.54    0.60
  -5  -5   2    1.44    0.74
   5  -5  -2    1.18    0.68
  -5  -5   2    1.87    0.80
   5  -5  -2    2.34    0.62
   5   5  -2    1.75    0.85
  -3  -5   2    4.00    0.86
   3  -5  -2    3.63    0.65
   3  -5  -2    3.49    0.62
  -3  -5   2    4.50    1.00
  -3  -5   2    5.20    0.92
   3  -5  -2    3.88    0.74
   3   5  -2    2.14    0.85
   1  -5  -2   12.33    1.13
   1  -5  -2    9.95    0.97
   1  -5  -2   10.04    0.98
  -1  -5   2   10.68    1.23
  -1  -5   2   10.19    1.11
  -1   5   2    8.37    1.04
   1   5  -2   11.10    1.28
   1  -5   2   -0.59    0.69
   1  -5   2    0.95    0.71
  -1  -5  -2   -0.06    0.48
  -1  -5  -2    0.52    0.47
   1   5   2    0.89    0.73
  -1   5  -2    0.01    0.61
   1   5   2    0.23    0.64
  -3  -5  -2    5.82    0.93
   3  -5   2    8.36    1.25
  -3  -5  -2   10.93    1.06
   3   5   2    8.57    1.05
  -3   5  -2    9.65    1.15
   3   5   2   10.72    1.30
   5  -5   2   79.34    3.08
  -5  -5  -2   81.86    2.90
   5   5   2   83.56    3.01
  -5   5  -2   84.18    3.06
   5   5   2   77.41    3.24
  -7  -5  -2   33.76    1.80
   7  -5   2   33.05    2.01
   7   5   2   30.39    1.91
   7   5   2   34.10    2.23
  -7   5  -2   34.91    1.96
   9  -5   2    0.06    0.73
  -9  -5  -2    1.56    0.78
   9   5   2    0.41    0.86
  -9   5  -2    1.13    0.73
   9   5   2    0.66    0.80
  11  -5   2   41.89    2.44
  11   5   2   42.14    2.67
  11   5   2   35.76    2.30
  13  -5   2   22.60    2.05
  13  -5   2   23.29    2.02
  13   5   2   24.67    2.06
  13   5   2   25.80    2.38
  15  -5   2   19.79    2.00
  15  -5   2   23.02    2.10
  15   5   2   18.38    2.26
  15   5   2   24.29    2.28
  17  -5   2    8.09    1.55
  17   5   2    8.80    1.64
  17   5   2    8.99    1.76
  19  -5   2   14.61    1.94
  19   5   2   11.64    1.82
  19   5   2   16.27    2.34
  21  -5   2    0.11    1.10
  21   5   2    0.15    1.25
  21   5   2    0.40    1.25
  23  -5   2   -0.30    1.17
  23   5   2    0.50    1.37
  23   5   2    0.55    1.53
  25  -5   2   14.34    2.19
  25   5   2   16.27    2.59
  25   5   2   15.06    2.44
  27  -5   2   14.19    2.33
  27   5   2   20.65    3.09
  27   5   2   12.06    2.40
  29  -5   2   10.63    2.19
  29   5   2    6.50    2.16
  29   5   2    9.28    2.47
  32   6  -2   40.45    4.22
  32   6  -2   40.78    4.23
  30   6  -2    1.49    1.87
  30   6  -2    3.14    1.85
  28  -6  -2   10.69    1.74
  28   6  -2   12.39    2.43
  28   6  -2   10.91    2.33
  26  -6  -2   14.23    1.86
  26   6  -2   15.09    2.44
  26   6  -2   17.09    2.72
  24  -6  -2   16.11    1.81
  24   6  -2   13.39    2.19
  24   6  -2   14.98    2.34
  22  -6  -2   20.54    1.90
  22   6  -2   18.94    2.39
  22   6  -2   15.63    2.24
  20  -6  -2   59.54    2.81
  20   6  -2   60.45    3.51
  20   6  -2   58.44    3.57
  18  -6  -2   60.89    2.74
  18   6  -2   65.95    3.52
  18   6  -2   61.65    3.58
  16  -6  -2   12.78    1.39
 -16   6   2   15.55    1.59
  16   6  -2   11.21    1.67
  16   6  -2   11.30    1.75
  14  -6  -2   38.77    2.03
  14   6  -2   37.99    2.69
 -14   6   2   36.33    1.97
  14   6  -2   41.39    2.58
  12  -6  -2    0.54    0.66
  12   6  -2    0.40    0.98
 -12   6   2    0.47    0.65
  12   6  -2    1.47    1.01
  10  -6  -2  181.74    5.02
 -10   6   2  179.85    4.99
  10   6  -2  163.42    5.58
   8  -6  -2   39.64    1.80
  -8   6   2   40.51    1.81
   8   6  -2   38.78    2.35
   6  -6  -2  125.93    3.81
  -6  -6   2  121.75    4.36
   6  -6  -2  121.75    3.72
   6   6  -2  132.68    4.45
  -4  -6   2   12.01    1.42
   4  -6  -2   11.71    1.20
   4  -6  -2   13.62    1.16
   4  -6  -2   12.95    1.13
   4   6  -2   10.88    1.32
  -2  -6   2   10.20    1.36
   2  -6  -2   11.15    1.06
   2  -6  -2   11.36    1.18
   2  -6  -2   10.10    1.07
   2   6  -2    9.17    1.35
   0  -6   2   60.63    2.75
   0  -6  -2   66.52    2.60
   0  -6  -2   70.40    2.67
   0  -6  -2   64.63    2.58
   0   6   2   66.94    2.73
  -2  -6  -2   32.75    1.76
   2  -6   2   29.62    1.94
  -2   6  -2   31.56    1.91
   2   6   2   32.20    1.93
   4  -6   2  220.83    6.48
  -4  -6  -2  220.75    6.29
  -4   6  -2  226.88    6.42
   4   6   2  221.83    6.39
   4   6   2  227.96    6.72
   6  -6   2   58.06    2.69
  -6  -6  -2   60.88    2.82
  -6   6  -2   59.24    2.64
   6   6   2   57.06    2.67
   6   6   2   55.30    2.81
   8  -6   2  127.98    4.45
   8   6   2  129.22    4.79
   8   6   2  126.23    4.39
  10  -6   2    3.61    1.04
  10   6   2    3.43    1.00
  10   6   2    1.77    1.11
  12  -6   2   73.90    3.31
  12   6   2   63.57    3.44
  12   6   2   68.02    3.23
  14  -6   2   14.59    1.81
  14   6   2   14.47    2.09
  14   6   2   19.85    2.04
  16  -6   2  112.65    4.53
  16  -6   2  106.83    4.50
  16   6   2  114.13    4.72
  16   6   2  115.14    5.04
  18  -6   2   80.25    3.87
  18   6   2   79.82    4.34
  18   6   2   85.25    4.13
  20  -6   2   44.31    3.01
  20   6   2   53.19    3.80
  20   6   2   49.38    3.50
  22  -6   2   29.80    2.74
  22   6   2   29.30    2.97
  22   6   2   24.75    3.11
  24  -6   2    9.36    1.93
  24   6   2    6.15    2.05
  24   6   2    8.87    2.08
  26  -6   2   25.63    2.83
  26   6   2   27.66    3.38
  26   6   2   23.88    3.11
  28  -6   2   -0.55    1.55
  28   6   2    1.70    1.95
  28   6   2    1.32    2.00
  31   7  -2    1.03    2.09
  31   7  -2    5.30    2.12
  29   7  -2    4.11    2.01
  29   7  -2   -1.10    1.66
  27   7  -2    3.71    2.01
  27   7  -2    3.36    1.88
  25  -7  -2    3.48    1.23
  25   7  -2    4.02    1.75
  25   7  -2    3.75    1.73
  23  -7  -2    0.81    0.99
  23   7  -2    1.67    1.38
  23   7  -2   -1.10    1.27
  21  -7  -2   24.68    2.04
  21   7  -2   25.04    2.75
  21   7  -2   21.23    2.67
  19  -7  -2    4.32    1.12
  19   7  -2    1.14    1.23
  19   7  -2    3.46    1.45
  17   7  -2   12.32    2.05
  17   7  -2   14.27    1.97
  15  -7  -2    0.61    0.73
  15   7  -2    3.83    1.45
 -15   7   2    1.22    0.83
  15   7  -2   -1.97    0.88
  13  -7  -2   -0.47    0.61
  13   7  -2    0.23    1.02
 -13   7   2    0.61    0.72
  11  -7  -2   10.94    1.21
  11   7  -2   12.14    1.60
 -11   7   2   12.35    1.25
   9  -7  -2   18.38    1.48
  -9   7   2   22.12    1.48
   9   7  -2   20.14    2.04
   7  -7  -2  133.76    4.12
   7  -7  -2  133.97    4.21
  -7  -7   2  134.84    4.85
   7   7  -2  132.12    4.83
   5  -7  -2   -0.40    0.58
   5  -7  -2   -0.14    0.48
  -5  -7   2    1.03    0.87
   5   7  -2   -0.54    0.86
   3  -7  -2    3.10    0.81
  -3  -7   2    1.89    0.95
   3  -7  -2    4.39    0.88
   3   7  -2    3.12    1.12
  -1  -7   2   11.25    1.46
   1  -7  -2   12.54    1.31
  -1  -7  -2    1.51    0.79
   1  -7   2   -0.18    0.80
   1   7   2    0.14    0.84
   3  -7   2   35.73    2.17
   3   7   2   32.55    2.15
   5  -7   2   17.25    1.75
   5   7   2   16.89    1.68
   5   7   2   13.32    1.63
   7  -7   2    5.05    1.12
   7   7   2    6.30    1.28
   7   7   2    6.59    1.47
   9  -7   2   26.76    2.19
   9   7   2   23.04    2.32
   9   7   2   26.89    2.22
  11  -7   2    5.90    1.24
  11   7   2    2.70    1.26
  11   7   2    4.38    1.21
  13  -7   2   -1.05    0.91
  13   7   2    1.06    1.04
  13   7   2    1.40    1.16
  15  -7   2   17.20    2.03
  15   7   2   22.11    2.36
  15   7   2   19.49    2.42
  17  -7   2   12.84    1.91
  17  -7   2   12.21    1.86
  17   7   2   15.88    2.45
  17   7   2    9.87    1.84
  19  -7   2   22.02    2.42
  19   7   2   21.62    2.52
  19   7   2   26.41    3.09
  21  -7   2   -2.43    1.02
  21   7   2   -0.36    1.44
  21   7   2    2.36    1.43
  23  -7   2   -2.01    1.20
  23   7   2   -1.16    1.34
  23   7   2   -1.60    1.44
  25  -7   2    0.68    1.45
  25   7   2    0.08    1.59
  25   7   2    1.33    1.74
  27   7   2   -2.09    1.47
  27   7   2    1.75    1.92
  28   8  -2   37.73    3.96
  28   8  -2   35.89    3.72
  26   8  -2    5.04    2.08
  26   8  -2   -0.06    1.74
  24   8  -2   26.21    2.98
  24   8  -2   29.73    3.34
  22  -8  -2   34.56    2.40
  22   8  -2   34.34    3.60
  22   8  -2   36.60    3.45
  20  -8  -2   12.88    1.65
  20   8  -2   11.48    2.09
  20   8  -2   13.58    2.40
  18   8  -2   89.40    4.50
  18   8  -2   87.83    4.68
  16  -8  -2    1.15    0.84
  16   8  -2   -1.55    1.08
  14  -8  -2   27.89    1.95
 -14   8   2   31.28    2.11
  14   8  -2   30.36    2.78
  12  -8  -2    4.13    0.96
 -12   8   2    4.26    1.00
  12   8  -2    4.66    1.46
  10  -8  -2   62.31    2.63
 -10  -8   2   60.06    3.33
  10   8  -2   59.70    3.30
   8  -8  -2   -0.03    0.63
  -8  -8   2    1.28    1.13
   8   8  -2    1.32    1.11
  -6  -8   2   60.95    3.16
   6  -8  -2   61.50    2.61
   6   8  -2   66.49    3.35
   4  -8  -2   66.02    2.74
  -4  -8   2   64.86    3.20
   4   8  -2   64.35    3.30
  -2  -8   2   37.99    2.41
   2  -8  -2   36.26    2.09
   0  -8  -2   18.27    1.70
   0  -8   2   19.05    1.88
   2  -8   2   80.20    3.48
  -2  -8  -2   75.10    3.29
   2   8   2   78.10    3.41
   4  -8   2   63.33    3.05
   4   8   2   66.68    3.17
   6  -8   2   16.53    1.82
   6   8   2   17.29    1.92
   8  -8   2   64.45    3.17
   8   8   2   64.83    3.59
   8   8   2   70.78    3.32
  10  -8   2    4.50    1.27
  10   8   2    2.91    1.22
  10   8   2    5.95    1.57
  12  -8   2   97.79    4.11
  12   8   2   92.83    4.15
  12   8   2   92.64    4.54
  14  -8   2    6.53    1.51
  14   8   2    5.51    1.73
  14   8   2    6.37    1.62
  16  -8   2   67.12    3.54
  16   8   2   59.00    3.57
  16   8   2   59.82    4.07
  18  -8   2   18.95    2.31
  18   8   2   21.29    2.99
  18   8   2   21.01    2.60
  20  -8   2    5.26    1.67
  20   8   2    3.45    1.61
  20   8   2    4.74    2.04
  22  -8   2   11.85    2.05
  22   8   2   10.64    2.59
  22   8   2   13.31    2.43
  24  -8   2   12.18    2.45
  24   8   2   13.06    2.42
  24   8   2    9.28    2.67
  27   9  -2    0.23    1.81
  27   9  -2   -2.03    1.62
  25   9  -2    4.37    2.12
  25   9  -2    7.91    2.36
  23   9  -2    0.29    1.58
  23   9  -2   -0.75    1.48
  21   9  -2    7.26    2.01
  19  -9  -2   -0.87    0.91
  19   9  -2   -1.48    1.29
  17  -9  -2    1.28    0.97
  17   9  -2    1.35    1.50
  15  -9  -2    0.43    0.89
  15   9  -2   -0.80    1.36
  13  -9  -2    0.78    0.86
  13   9  -2    2.34    1.37
  11  -9  -2   10.20    1.34
 -11  -9   2   10.00    1.84
  11   9  -2    9.50    1.80
  -9  -9   2    3.38    1.36
   9  -9  -2    1.27    0.90
   9   9  -2    3.62    1.31
   7  -9  -2    1.60    0.90
  -7  -9   2    1.78    1.18
   7   9  -2    3.16    1.37
   5  -9  -2   14.13    1.52
  -5  -9   2   15.22    1.95
   5   9  -2   14.07    2.00
  -3  -9   2    9.09    1.56
   3  -9  -2    9.83    1.38
   1  -9  -2    3.16    0.98
  -1  -9   2    1.79    1.06
  -1  -9  -2    2.86    1.04
   1  -9   2    6.24    1.36
  -3  -9  -2   -0.22    0.89
   3  -9   2   -1.15    0.95
   3   9   2    1.02    1.06
  -5  -9  -2   25.42    2.33
   5  -9   2   23.93    2.23
   5   9   2   27.19    2.39
   7  -9   2   -0.32    0.95
   7   9   2    2.14    1.25
   9  -9   2    3.62    1.23
   9   9   2    4.15    1.38
  11  -9   2   -0.89    0.97
  11   9   2    2.49    1.41
  11   9   2    1.55    1.24
  13  -9   2    3.78    1.35
  13   9   2    2.43    1.55
  13   9   2    2.88    1.41
  15  -9   2   -1.02    1.14
  15   9   2   -0.03    1.26
  15   9   2   -0.43    1.36
  17  -9   2    4.34    1.41
  17   9   2    2.17    1.59
  17   9   2    0.89    1.45
  19  -9   2    2.25    1.52
  19   9   2    6.47    1.85
  19   9   2    2.53    1.75
  21  -9   2   -1.61    1.45
  21   9   2   -1.95    1.60
  21   9   2    0.97    1.60
  23   9   2    0.50    1.70
  23   9   2   -0.81    1.80
  24  10  -2   21.71    3.09
  22  10  -2    5.88    2.15
  20  10  -2   -0.16    1.62
  18  10  -2   84.01    4.83
  16  10  -2    3.05    1.75
 -14 -10   2   60.23    4.06
  14  10  -2   65.14    4.00
  12 -10  -2   29.88    2.12
 -12 -10   2   30.69    3.13
  12  10  -2   32.20    3.12
  10 -10  -2   67.37    3.00
 -10 -10   2   63.50    3.81
  10  10  -2   65.21    3.86
   8 -10  -2    6.44    1.26
  -8 -10   2    9.87    1.86
   8  10  -2    7.48    1.79
   6 -10  -2   13.87    1.58
  -6 -10   2    9.66    1.81
   6  10  -2   10.97    2.01
   4 -10  -2   47.73    2.62
  -4 -10   2   51.40    3.17
   2 -10  -2   27.99    2.16
  -2 -10   2   32.07    2.70
   0 -10   2   22.45    2.33
   0 -10  -2   20.21    2.04
   2 -10   2   67.66    3.47
  -2 -10  -2   65.93    3.32
  -4 -10  -2   31.70    2.48
   4 -10   2   31.52    2.67
   4  10   2   30.42    2.65
   6 -10   2    3.95    1.37
  -6 -10  -2    4.53    1.44
   6  10   2    1.41    1.30
  -8 -10  -2   20.30    2.39
   8 -10   2   15.34    1.96
   8  10   2   17.00    2.20
  10 -10   2    3.59    1.41
  10  10   2    6.39    1.64
  12 -10   2   78.89    3.89
  12  10   2   76.96    4.18
  14 -10   2    0.88    1.27
  14  10   2    1.48    1.49
  16 -10   2   64.69    3.68
  16  10   2   66.23    4.15
  16  10   2   52.99    4.49
  18 -10   2   10.52    2.34
  18  10   2    7.74    2.14
  18  10   2    9.81    2.39
  20  10   2    7.93    2.11
  20  10   2    2.01    2.12
  21  11  -2    4.35    2.07
 -19 -11   2    1.15    1.83
  19  11  -2    1.32    1.79
 -17 -11   2    7.58    2.34
  17  11  -2    8.08    2.17
 -15 -11   2    8.53    2.23
  15  11  -2    8.43    2.16
 -13 -11   2   14.21    2.46
  13  11  -2   12.95    2.35
 -11 -11   2    0.76    1.43
  11  11  -2    0.31    1.52
  -9 -11   2    2.78    1.53
   9  11  -2   -0.53    1.39
   7 -11  -2    4.73    1.53
  -7 -11   2    6.70    1.72
  -5 -11   2    0.14    1.18
   5 -11  -2    1.56    1.01
   3 -11  -2   34.82    2.45
  -3 -11   2   30.82    2.85
   1 -11  -2    1.91    1.15
  -1 -11   2    1.92    1.33
  -1 -11  -2   11.58    1.79
   1 -11   2   12.09    1.94
   3 -11   2    0.46    1.20
  -3 -11  -2    0.22    1.14
   5 -11   2    0.87    1.22
  -5 -11  -2    2.27    1.34
  -7 -11  -2   -0.25    1.15
   7 -11   2   -0.01    1.14
   7  11   2    1.59    1.45
  -9 -11  -2    6.36    1.80
   9 -11   2    3.39    1.40
   9  11   2    4.34    1.70
 -11 -11  -2   12.36    2.28
  11 -11   2   11.50    2.23
  11  11   2   11.19    2.14
  13  11   2    2.90    1.70
  15  11   2    0.63    1.68
  17  11   2   17.12    2.63
 -16 -12   2    0.54    1.75
  16  12  -2    4.38    2.02
 -14 -12   2   25.57    3.25
  14  12  -2   24.88    3.19
 -12 -12   2    0.77    1.60
  12  12  -2    1.12    1.78
 -10 -12   2   44.26    3.82
  10  12  -2   45.64    3.93
  -8 -12   2    4.06    1.78
  -6 -12   2   19.07    2.51
  -4 -12   2   11.68    2.08
  -2 -12   2    4.27    1.61
   0 -12   2   24.80    2.72
   0 -12  -2   25.63    3.59
  -2 -12  -2   23.70    2.51
   2 -12   2   22.83    2.56
   4 -12   2   58.23    3.60
  -4 -12  -2   62.76    3.71
  -6 -12  -2    4.81    1.65
  -8 -12  -2   37.64    3.45
   8  12   2   27.57    3.04
 -10 -12  -2    0.00    1.58
  10  12   2    0.07    1.57
 -12 -12  -2   34.24    3.63
  12  12   2   33.67    3.44
 -11 -13   2    4.91    2.10
  -9 -13   2   -0.44    1.51
  -7 -13   2    2.79    1.68
  -5 -13   2   -0.95    1.43
  -3 -13   2   46.28    4.59
  36   0  -3   -0.08    1.50
  36   0  -3    1.17    2.06
  34   0  -3   -0.42    1.68
  34   0  -3    0.51    1.45
  32   0  -3   -1.18    1.21
  32   0  -3   -2.19    1.42
  30   0  -3    0.83    1.31
  30   0  -3   -1.63    1.31
  28   0  -3   -0.44    1.37
  28   0  -3   -1.89    1.01
  26   0  -3   -0.42    0.93
  24   0  -3   -0.25    0.85
  22   0  -3    0.64    0.82
  20   0  -3    0.65    0.78
  18   0  -3    0.79    0.73
 -18   0   3    0.27    0.68
 -16   0   3   -0.18    0.64
  16   0  -3    0.37    0.67
 -14   0   3   -0.20    0.60
  14   0  -3   -0.46    0.53
 -12   0   3   -0.15    0.54
  12   0  -3   -0.36    0.51
  10   0  -3    0.03    0.50
 -10   0   3   -0.47    0.48
   8   0  -3   -0.43    0.50
   8   0  -3   -0.38    0.38
  -8   0   3   -0.60    0.37
   6   0  -3    0.21    0.35
  -6   0   3   -0.43    0.32
  -6   0   3    0.09    0.27
   6   0  -3   -0.04    0.23
  -4   0   3   -0.02    0.22
  -4   0   3    0.05    0.25
   4   0  -3   -0.16    0.20
   4   0  -3    0.05    0.23
  -2   0   3    0.22    0.26
   2   0  -3   -0.19    0.17
   2   0  -3   -0.36    0.26
  -2   0   3   -0.13    0.18
   0   0  -3    0.07    0.40
   0   0   3   -0.32    0.39
   0   0   3   -0.29    0.35
  -2   0  -3    0.20    0.54
   2   0   3   -0.03    0.58
   2   0   3    0.46    0.52
  -2   0  -3    0.13    0.49
   4   0   3   -0.45    0.60
  -4   0  -3   -0.20    0.57
  -4   0  -3   -0.27    0.59
   6   0   3   -0.38    0.64
  -6   0  -3   -0.54    0.59
  -6   0  -3   -0.07    0.68
  -8   0  -3    0.37    0.69
  -8   0  -3   -0.10    0.68
   8   0   3   -0.23    0.76
 -10   0  -3    0.68    0.98
  10   0   3    1.06    0.86
  12   0   3    0.13    0.75
  14   0   3   -1.16    0.73
  16   0   3    0.28    0.88
  18   0   3    0.57    1.00
  20   0   3    1.17    1.15
  22   0   3    1.14    1.19
  24   0   3    0.62    1.38
  26   0   3   -0.62    1.40
  28   0   3    0.12    1.34
  30   0   3   -2.38    1.65
  30   0   3   -1.56    1.53
  35  -1  -3    1.77    1.44
  35  -1  -3    0.35    2.07
  35   1  -3    2.78    1.65
  35   1  -3   -1.26    1.90
  33  -1  -3    6.04    2.06
  33  -1  -3    4.65    1.67
  33   1  -3    6.10    1.97
  33   1  -3    7.55    1.89
  31  -1  -3   21.32    2.48
  31   1  -3   20.70    2.57
  31   1  -3   20.02    2.79
  29  -1  -3   49.96    3.18
  29   1  -3   53.24    3.37
  29   1  -3   49.90    4.02
  27  -1  -3  118.67    4.72
  27   1  -3  117.76    5.31
  27   1  -3  122.17    5.01
  25  -1  -3   46.29    2.71
  25   1  -3   48.16    2.95
  25   1  -3   53.04    3.41
  23  -1  -3   11.34    1.49
  23   1  -3    8.94    1.58
  23   1  -3   12.76    1.69
  21  -1  -3   25.18    1.85
  21   1  -3   29.57    2.35
  21   1  -3   27.55    2.36
  19  -1  -3    0.10    0.66
 -19   1   3    0.03    0.68
  19   1  -3   -0.87    0.75
  19   1  -3    0.22    0.76
 -17  -1   3  389.09    9.94
  17  -1  -3  360.61    9.62
 -17   1   3  376.76    9.64
  17   1  -3  382.06    9.95
  17   1  -3  386.24   10.22
 -15  -1   3   33.65    1.89
  15  -1  -3   37.38    1.75
 -15   1   3   41.91    1.83
  15   1  -3   33.47    2.24
  15   1  -3   37.98    2.00
  13  -1  -3  370.74    9.06
 -13  -1   3  387.56    9.37
  13   1  -3  354.90    9.48
  13   1  -3  362.31    9.32
 -13   1   3  371.94    9.05
  11  -1  -3   73.76    2.25
 -11  -1   3   75.04    2.50
  11   1  -3   74.37    2.66
 -11   1   3   71.90    2.23
  11   1  -3   71.18    2.50
   9  -1  -3   61.04    1.79
  -9  -1   3   59.04    2.15
  -9  -1   3   63.08    2.13
   9   1  -3   61.08    2.24
   9   1  -3   60.62    2.08
  -9   1   3   58.74    1.78
   7  -1  -3   35.13    1.02
  -7  -1   3   37.24    1.50
  -7  -1   3   36.31    1.44
   7   1  -3   36.55    1.45
   7   1  -3   36.23    1.47
  -7   1   3   35.79    1.03
  -5  -1   3   63.33    1.95
   5   1  -3   64.99    1.99
  -3  -1   3  352.79    7.68
  -3  -1   3  283.04    7.69
   3  -1  -3  365.86    7.41
   3  -1  -3  339.41    7.43
  -3   1   3  293.39    7.41
  -3   1   3  269.60    7.36
   3   1  -3  363.55    7.79
   1  -1  -3    5.07    0.50
  -1  -1   3    4.94    0.63
   1  -1  -3    5.09    0.51
  -1  -1   3    4.53    0.53
  -1   1   3    6.04    0.57
  -1   1   3    4.57    0.28
   1   1  -3    4.23    0.56
  -1  -1  -3  304.44    7.47
  -1  -1  -3  317.23    7.50
   1  -1   3  301.26    7.59
   1   1   3  306.85    7.49
  -1   1  -3  304.93    7.56
   3  -1   3  134.05    3.96
  -3  -1  -3  137.14    3.86
   3   1   3  137.05    3.90
  -3   1  -3  132.90    3.89
  -5  -1  -3   57.08    2.17
   5  -1   3   53.75    2.29
   5  -1   3   51.93    2.21
  -5   1  -3   52.24    2.19
   5   1   3   51.17    2.15
   7  -1   3   -0.65    0.70
  -7  -1  -3    0.99    0.77
   7  -1   3    0.62    0.75
  -7   1  -3    0.27    0.62
   7   1   3    1.45    0.77
  -9  -1  -3  270.91    7.56
  -9  -1  -3  287.45    7.55
   9  -1   3  271.77    7.47
  -9   1  -3  262.42    7.52
   9   1   3  271.21    7.52
  11  -1   3  134.67    4.56
  11   1   3  137.66    4.62
  13  -1   3  125.42    4.41
  13   1   3  122.79    4.48
  15  -1   3   12.17    1.71
  15   1   3    8.25    1.46
  17  -1   3   37.22    2.58
  17   1   3   37.70    2.70
  19  -1   3   85.61    4.00
  19   1   3   83.13    4.03
  21  -1   3    0.56    1.10
  21   1   3    1.54    1.29
  23  -1   3  108.21    4.90
  23   1   3  103.61    5.08
  23   1   3  100.50    4.92
  25  -1   3    1.29    1.48
  25   1   3   -0.40    1.27
  25   1   3   -0.66    1.38
  27  -1   3   23.58    2.87
  27   1   3   23.01    2.95
  27   1   3   17.05    2.61
  29  -1   3    5.51    1.98
  29   1   3    0.98    1.90
  29   1   3    1.29    1.70
  31  -1   3   17.23    2.78
  31   1   3   17.53    3.16
  31   1   3   11.92    2.73
  36  -2  -3    4.42    1.83
  36   2  -3    2.83    2.23
  36   2  -3    8.21    2.23
  34  -2  -3    1.86    1.51
  34   2  -3    1.03    1.53
  34   2  -3    1.55    1.89
  32  -2  -3    3.09    1.42
  32   2  -3    2.75    1.52
  32   2  -3    1.62    1.79
  30  -2  -3    7.25    1.58
  30   2  -3    4.33    1.73
  30   2  -3    7.22    1.76
  28  -2  -3    0.36    1.01
  28   2  -3    0.03    1.40
  28   2  -3    0.74    1.27
  26  -2  -3   29.59    2.23
  26   2  -3   31.22    2.79
  26   2  -3   34.11    3.14
  24  -2  -3    5.59    1.16
  24   2  -3    2.43    1.19
  24   2  -3    4.04    1.33
  22  -2  -3   11.43    1.40
  22   2  -3   10.08    1.66
  22   2  -3   12.53    1.75
  20  -2  -3    2.06    0.77
  20   2  -3    1.04    0.98
  20   2  -3    1.37    0.94
  18  -2  -3   51.13    2.24
  18   2  -3   48.35    2.64
  18   2  -3   56.81    2.74
 -18   2   3   53.71    2.52
  16  -2  -3    0.71    0.58
  16   2  -3    0.10    0.74
  16   2  -3    0.03    0.76
 -16   2   3    0.61    0.65
 -14  -2   3    9.80    1.18
  14  -2  -3    9.82    0.91
  14   2  -3    9.48    1.21
  14   2  -3   10.39    1.26
 -14   2   3   11.54    1.18
  12  -2  -3  188.92    4.83
 -12  -2   3  193.57    5.40
 -12  -2   3  184.54    5.28
  12   2  -3  185.53    5.35
  12   2  -3  184.53    5.42
 -12   2   3  187.88    5.04
  10  -2  -3   58.62    1.75
 -10  -2   3   59.77    2.24
 -10  -2   3   58.29    2.23
 -10   2   3   56.81    1.91
  10   2  -3   50.20    2.28
  10   2  -3   57.35    2.30
   8  -2  -3    0.18    0.27
  -8  -2   3    0.17    0.60
  -8  -2   3    0.02    0.55
  -8   2   3    0.07    0.35
   8   2  -3    0.48    0.65
   8   2  -3    0.11    0.65
  -6  -2   3   20.72    1.21
  -6  -2   3   19.85    1.24
  -6   2   3   20.42    0.67
   6   2  -3   20.90    1.31
  -4  -2   3  221.16    5.62
  -4  -2   3  210.85    5.68
   4  -2  -3  223.14    5.20
  -4   2   3  226.09    5.21
   4   2  -3  224.52    5.70
   4   2  -3  216.56    5.64
   2  -2  -3   36.69    1.23
  -2  -2   3   35.71    1.60
   2  -2  -3   35.49    1.10
   2   2  -3   36.54    1.56
  -2   2   3   35.59    1.12
  -2   2   3   33.26    1.27
   2   2  -3   34.21    1.53
   0  -2   3  283.81    7.06
   0  -2   3  279.19    7.11
   0  -2  -3  284.52    6.63
   0  -2  -3  277.90    6.91
   0   2  -3  284.74    7.09
   0   2   3  286.98    6.65
   0   2   3  279.16    6.95
  -2  -2  -3    0.40    0.32
   2  -2   3   -0.43    0.63
  -2  -2  -3   -0.21    0.53
   2   2   3    0.09    0.39
  -2   2  -3    1.50    0.66
   2   2   3   -0.21    0.59
   4  -2   3   23.13    1.59
  -4  -2  -3   23.77    1.42
   4   2   3   25.08    1.50
  -4   2  -3   23.37    1.46
   4   2   3   25.03    1.29
   6  -2   3   45.05    2.19
  -6  -2  -3   45.95    2.07
  -6   2  -3   44.03    2.09
   6   2   3   43.15    2.10
   6   2   3   41.79    1.86
  -8  -2  -3   20.36    1.54
   8  -2   3   17.69    1.65
   8  -2   3   20.73    1.55
   8   2   3   18.73    1.55
   8   2   3   15.94    1.54
  -8   2  -3   21.56    1.69
  10  -2   3    1.24    0.86
  10  -2   3    2.44    0.91
  10   2   3    0.78    0.77
  10   2   3    1.08    0.85
  12  -2   3    5.46    1.10
  12   2   3    7.77    1.34
  12   2   3    5.85    1.10
  14  -2   3    0.41    0.96
  14   2   3    0.01    0.84
  14   2   3    0.39    1.02
  16  -2   3    2.14    1.09
  16   2   3    0.61    0.98
  16   2   3    1.19    0.96
  18  -2   3   13.28    1.81
  18   2   3   12.41    1.94
  18   2   3   11.73    1.89
  20  -2   3   17.26    2.12
  20   2   3   12.77    1.96
  20   2   3   16.90    2.21
  22  -2   3    6.94    1.74
  22   2   3    4.98    1.60
  22   2   3    6.21    1.66
  24  -2   3    5.46    1.74
  24   2   3    6.38    1.90
  24   2   3    3.99    1.63
  26  -2   3    5.11    1.70
  26   2   3   10.13    2.22
  26   2   3    4.01    1.71
  28  -2   3    0.55    1.57
  28   2   3    1.52    1.80
  28   2   3    1.90    1.87
  30  -2   3    8.22    2.20
  30   2   3    6.42    2.27
  30   2   3    5.54    2.23
  35  -3  -3   37.33    3.37
  35   3  -3   36.28    3.72
  35   3  -3   32.37    3.80
  33  -3  -3   10.84    1.96
  33   3  -3   11.08    2.22
  33   3  -3   10.84    2.46
  31  -3  -3   53.23    3.25
  31   3  -3   60.58    4.00
  31   3  -3   57.27    4.56
  29  -3  -3   22.85    2.30
  29   3  -3   26.31    2.81
  29   3  -3   25.34    2.93
  27  -3  -3   11.03    1.65
  27   3  -3   12.80    2.11
  27   3  -3   11.95    2.20
  25  -3  -3  173.79    5.76
  25   3  -3  179.45    6.46
  25   3  -3  189.16    6.77
  23  -3  -3    0.23    0.73
  23   3  -3    0.29    0.98
  23   3  -3    0.30    1.11
  21  -3  -3  224.08    6.49
  21   3  -3  227.87    7.28
  21   3  -3  227.06    7.18
  19  -3  -3   20.37    1.51
  19   3  -3   21.08    2.14
  19   3  -3   20.36    2.03
  17  -3  -3  227.63    6.13
 -17   3   3  224.93    6.41
  17   3  -3  221.42    6.84
  17   3  -3  226.04    6.84
  15  -3  -3   26.97    1.44
  15   3  -3   30.75    1.97
 -15   3   3   27.50    1.65
  15   3  -3   29.17    1.93
  13  -3  -3  145.99    4.10
 -13  -3   3  154.02    4.77
 -13   3   3  157.33    4.38
  13   3  -3  147.65    4.78
  13   3  -3  155.61    4.85
 -11  -3   3  182.27    5.33
 -11  -3   3  176.53    5.28
  11  -3  -3  183.03    4.69
 -11   3   3  181.82    4.83
  11   3  -3  188.57    5.46
  11   3  -3  197.46    5.51
  -9  -3   3  163.83    4.72
  -9  -3   3  159.04    4.66
   9   3  -3  158.58    4.73
  -9   3   3  162.19    4.10
   9   3  -3  156.91    4.70
  -7  -3   3  128.86    3.87
   7  -3  -3  127.64    3.23
  -7  -3   3  135.24    3.92
   7   3  -3  128.22    3.92
  -7   3   3  129.88    3.24
   5  -3  -3    1.65    0.38
  -5  -3   3    1.10    0.61
  -5  -3   3    1.09    0.71
   5  -3  -3    1.35    0.28
   5   3  -3    0.75    0.72
   3  -3  -3  287.51    7.09
  -3  -3   3  297.01    7.55
  -3  -3   3  300.70    7.51
   3  -3  -3  288.14    7.08
   3   3  -3  300.60    7.53
  -3   3   3  295.35    7.13
   3   3  -3  290.53    7.51
   1  -3  -3    7.37    0.70
  -1  -3   3    6.48    0.88
   1  -3  -3    7.07    0.62
  -1  -3   3    9.26    1.06
  -1   3   3    9.05    0.88
   1   3  -3    8.94    0.98
  -1   3   3    6.96    0.67
  -1  -3  -3  167.18    4.60
   1  -3   3  169.07    4.76
  -1  -3  -3  162.29    4.28
   1  -3   3  171.94    4.78
   1   3   3  165.02    4.33
  -1   3  -3  164.03    4.70
   1   3   3  168.25    4.65
  -3  -3  -3   27.09    1.56
  -3  -3  -3   25.44    1.22
   3  -3   3   25.89    1.63
  -3   3  -3   25.44    1.56
   3   3   3   27.03    1.66
   3   3   3   26.39    1.35
  -5  -3  -3  206.89    5.47
   5  -3   3  198.70    5.84
  -5  -3  -3  211.16    5.83
  -5   3  -3  208.70    5.84
   5   3   3  197.67    5.84
   5   3   3  212.53    5.55
  -7  -3  -3   -1.08    0.63
   7  -3   3    1.17    0.89
  -7   3  -3    2.02    1.18
   7   3   3   -0.07    0.63
   7   3   3    0.20    0.75
   9  -3   3  224.69    6.67
   9  -3   3  218.33    6.50
   9   3   3  223.50    6.71
   9   3   3  236.08    6.43
  -9   3  -3  232.96    6.65
  11  -3   3   12.06    1.52
  11  -3   3   13.93    1.50
  11   3   3   16.88    1.59
  11   3   3   12.40    1.53
  13  -3   3    9.63    1.38
  13   3   3    9.04    1.55
  13   3   3    9.81    1.39
  15  -3   3   43.39    2.63
  15   3   3   41.04    2.54
  15   3   3   39.39    2.60
  17  -3   3   24.39    2.31
  17   3   3   24.64    2.48
  17   3   3   28.72    2.54
  19  -3   3   99.77    4.37
  19   3   3   97.64    4.69
  19   3   3  100.93    4.46
  21  -3   3   29.67    2.77
  21   3   3   26.63    2.96
  21   3   3   23.71    2.63
  23  -3   3   40.95    3.34
  23   3   3   44.35    3.82
  23   3   3   45.01    3.67
  25  -3   3    2.14    1.51
  25   3   3   -0.45    1.36
  25   3   3    2.57    1.57
  27  -3   3   31.74    3.21
  27   3   3   24.51    3.09
  27   3   3   30.71    3.43
  29  -3   3   13.11    2.42
  29   3   3   11.75    2.53
  29   3   3    9.18    2.36
  34  -4  -3    2.40    1.74
  34   4  -3   -1.03    1.39
  34   4  -3    0.10    1.76
  32  -4  -3   11.76    1.95
  32   4  -3    6.51    2.21
  32   4  -3   13.26    2.52
  30  -4  -3   11.17    1.78
  30   4  -3    6.72    2.01
  30   4  -3    6.92    2.02
  28  -4  -3   -0.47    0.95
  28   4  -3    1.58    1.48
  28   4  -3    2.20    1.47
  26  -4  -3    6.18    1.31
  26   4  -3    6.65    1.75
  26   4  -3    8.28    1.89
  24  -4  -3   14.52    1.62
  24   4  -3   11.23    1.88
  24   4  -3   11.84    1.92
  22  -4  -3    1.20    0.83
  22   4  -3    2.90    1.26
  22   4  -3    1.71    1.16
  20  -4  -3    0.32    0.67
  20   4  -3   -0.25    0.95
  20   4  -3    1.17    1.07
  18  -4  -3   46.96    2.12
  18   4  -3   39.27    2.53
 -18   4   3   45.27    2.29
  18   4  -3   46.11    2.79
  16  -4  -3   33.18    1.68
 -16   4   3   35.70    1.86
  16   4  -3   37.34    2.42
  16   4  -3   33.78    2.33
  14  -4  -3    4.72    0.76
  14   4  -3    4.87    1.12
 -14   4   3    5.60    0.88
  14   4  -3    4.50    1.12
  12   4  -3   36.45    2.07
  12   4  -3   32.02    2.04
 -12   4   3   35.74    1.60
  10  -4  -3   36.66    1.49
 -10  -4   3   35.37    1.96
 -10  -4   3   37.76    1.99
  10   4  -3   36.51    2.05
 -10   4   3   36.96    1.55
  10   4  -3   34.68    2.08
  -8  -4   3   96.51    3.25
   8  -4  -3   95.28    2.62
   8   4  -3   89.41    3.27
  -8   4   3   89.75    2.60
  -6  -4   3   12.29    1.36
  -6  -4   3   12.26    1.24
   6  -4  -3   10.50    0.81
  -6  -4   3   10.29    1.10
   6  -4  -3    9.15    0.70
   6   4  -3   10.17    1.20
   4  -4  -3   85.11    2.54
  -4  -4   3   83.49    2.94
  -4  -4   3   83.22    3.04
   4  -4  -3   83.66    2.62
   4  -4  -3   83.41    2.39
   4   4  -3   82.13    3.01
  -2  -4   3    2.56    0.86
   2  -4  -3    3.87    0.62
  -2  -4   3    4.88    0.92
   2  -4  -3    3.28    0.52
   2   4  -3    3.01    0.82
   2   4  -3    3.00    0.88
  -2   4   3    2.24    0.66
  -2   4   3    3.37    0.69
   0  -4  -3   37.36    1.68
   0  -4  -3   37.30    1.51
   0  -4   3   37.67    1.93
   0  -4   3   36.66    1.95
   0   4   3   39.90    1.83
   0   4   3   39.53    1.68
   0   4  -3   39.63    1.88
  -2  -4  -3   12.77    1.17
   2  -4   3   12.46    1.27
  -2  -4  -3   13.49    0.95
   2  -4   3   10.94    1.19
  -2   4  -3   12.37    1.24
   2   4   3   14.23    1.30
   2   4   3   12.73    1.07
  -4  -4  -3    9.87    0.95
  -4  -4  -3   12.99    1.33
   4  -4   3   10.46    1.23
   4   4   3   10.20    1.03
   4   4   3    8.77    1.16
  -4   4  -3    9.21    1.23
  -6  -4  -3   14.57    1.20
   6  -4   3   13.11    1.44
   6   4   3   14.57    1.31
   6   4   3   12.60    1.43
  -6   4  -3   15.69    1.45
   8  -4   3    7.22    1.21
  -8   4  -3    6.61    1.19
   8   4   3   10.02    1.42
   8   4   3    6.28    1.01
  10  -4   3    4.16    1.11
  10   4   3    2.89    1.06
  10   4   3    3.58    0.97
  12  -4   3   18.04    1.80
  12  -4   3   21.55    2.11
  12   4   3   22.40    1.90
  12   4   3   18.61    2.00
  14  -4   3    3.27    1.16
  14  -4   3    3.57    1.12
  14   4   3    2.51    1.03
  14   4   3    3.50    1.33
  16  -4   3   40.13    2.64
  16   4   3   45.55    3.08
  16   4   3   34.60    2.55
  18  -4   3    2.56    1.31
  18   4   3    3.71    1.31
  18   4   3    2.62    1.47
  20  -4   3    5.21    1.49
  20   4   3    5.60    1.54
  20   4   3    8.31    1.90
  22  -4   3   10.03    1.93
  22   4   3    7.48    1.89
  22   4   3    4.53    1.63
  24  -4   3    7.98    1.82
  24   4   3   11.43    2.30
  24   4   3   12.66    2.33
  26  -4   3    2.32    1.51
  26   4   3    3.01    1.74
  26   4   3    5.50    1.98
  28  -4   3    0.26    1.63
  28   4   3    1.79    1.83
  28   4   3    0.29    1.72
  33   5  -3    6.63    2.33
  33   5  -3    3.35    2.02
  31  -5  -3   23.65    2.45
  31   5  -3   26.24    3.31
  31   5  -3   30.66    3.48
  29  -5  -3   10.93    1.71
  29   5  -3   11.95    2.23
  29   5  -3    8.69    2.06
  27  -5  -3    6.43    1.36
  27   5  -3    5.34    1.81
  27   5  -3    5.43    1.70
  25  -5  -3   89.71    3.69
  25   5  -3   88.23    4.65
  25   5  -3   97.89    4.73
  23  -5  -3    5.77    1.19
  23   5  -3    9.56    1.89
  23   5  -3    7.18    1.76
  21  -5  -3   96.85    3.50
  21   5  -3   94.21    4.35
  21   5  -3   90.41    4.30
  19  -5  -3   11.09    1.25
  19   5  -3   10.19    1.68
  19   5  -3    9.07    1.55
  17  -5  -3   57.10    2.32
  17   5  -3   55.29    3.05
  17   5  -3   51.00    2.95
 -17   5   3   54.38    2.43
  15  -5  -3   -0.18    0.54
  15   5  -3    0.61    0.92
 -15   5   3   -0.08    0.59
  15   5  -3    0.44    0.90
  13  -5  -3   29.68    1.54
  13   5  -3   28.91    2.09
  13   5  -3   27.74    2.21
 -13   5   3   28.97    1.55
  11  -5  -3   44.78    1.80
  11   5  -3   46.59    2.50
 -11   5   3   44.03    1.77
   9  -5  -3   37.01    1.54
   9   5  -3   35.28    2.17
  -9   5   3   39.45    1.54
  -7  -5   3   53.60    2.68
  -7  -5   3   61.74    2.63
   7  -5  -3   61.20    2.08
   7  -5  -3   60.10    2.10
   7   5  -3   65.32    2.80
  -5  -5   3  304.74    8.19
   5  -5  -3  304.63    7.90
  -5  -5   3  308.44    8.21
  -5  -5   3  307.47    8.33
   5  -5  -3  303.01    7.53
   5  -5  -3  310.22    7.70
   5   5  -3  309.09    8.32
   3  -5  -3   72.36    2.43
  -3  -5   3   72.99    2.86
  -3  -5   3   68.04    2.86
   3  -5  -3   68.42    2.30
   3  -5  -3   71.30    2.47
   3   5  -3   70.48    2.95
  -1  -5   3    5.87    0.99
   1  -5  -3    5.52    0.77
   1  -5  -3    5.10    0.73
  -1  -5   3    4.44    1.01
   1   5  -3    5.64    1.00
  -1   5   3    6.20    0.95
  -1   5   3    4.64    0.83
  -1  -5  -3  205.36    5.61
  -1  -5  -3  208.50    5.85
   1  -5   3  198.78    6.02
   1   5   3  216.06    5.99
   1   5   3  212.09    5.73
  -1   5  -3  213.09    5.98
  -3  -5  -3    6.33    1.03
   3  -5   3    5.91    1.11
  -3  -5  -3    7.87    0.89
  -3   5  -3    5.64    0.96
   3   5   3    4.48    0.97
   3   5   3    4.08    0.82
   5  -5   3  505.64   13.23
  -5  -5  -3  537.87   12.91
  -5   5  -3  529.74   13.21
   5   5   3  537.92   12.99
   5   5   3  514.62   13.37
   7  -5   3    0.17    0.76
  -7  -5  -3    0.32    0.58
   7   5   3    0.58    0.69
   7   5   3    0.05    0.84
   9  -5   3  107.39    4.08
   9   5   3  108.22    3.87
   9   5   3  110.31    4.27
  11  -5   3   26.70    2.29
  11   5   3   32.00    2.65
  11   5   3   29.59    2.11
  13  -5   3   29.10    2.46
  13  -5   3   26.44    2.19
  13   5   3   29.95    2.21
  13   5   3   26.28    2.43
  15  -5   3  115.71    4.56
  15  -5   3  117.70    4.72
  15   5   3  114.29    4.54
  15   5   3  118.68    4.98
  17  -5   3  114.83    4.56
  17   5   3  105.39    4.54
  17   5   3  102.04    4.81
  19  -5   3   75.02    3.78
  19   5   3   71.90    4.09
  19   5   3   66.71    3.85
  21  -5   3   26.15    2.63
  21   5   3   21.57    2.74
  21   5   3   25.33    2.74
  23  -5   3   19.94    2.47
  23   5   3   13.91    2.24
  23   5   3   17.54    2.68
  25  -5   3   -1.01    1.24
  25   5   3   -0.63    1.68
  25   5   3    0.73    1.47
  27  -5   3   30.30    3.17
  27   5   3   35.28    3.94
  27   5   3   36.29    3.76
  32   6  -3    6.83    2.33
  32   6  -3    5.17    2.16
  30   6  -3    3.94    1.88
  30   6  -3    3.48    2.09
  28  -6  -3    5.93    1.37
  28   6  -3    6.54    2.13
  28   6  -3    8.07    2.03
  26  -6  -3    0.32    0.92
  26   6  -3    2.89    1.63
  26   6  -3   -0.37    1.47
  24  -6  -3    9.71    1.40
  24   6  -3    9.86    2.07
  24   6  -3   11.19    2.23
  22  -6  -3    7.70    1.25
  22   6  -3    9.17    1.85
  22   6  -3    5.29    1.55
  20  -6  -3   18.87    1.65
  20   6  -3   19.38    2.42
  20   6  -3   16.99    2.09
  18  -6  -3    2.75    0.84
 -18   6   3    2.77    0.90
  18   6  -3    3.37    1.28
  18   6  -3    2.33    1.30
 -16   6   3    2.01    0.75
  16   6  -3    0.72    1.02
  16   6  -3    2.46    1.17
  14  -6  -3   14.97    1.27
  14   6  -3   16.78    1.89
 -14   6   3   15.28    1.33
  14   6  -3   12.74    1.60
  12  -6  -3   -0.69    0.54
 -12   6   3    0.99    0.59
  12   6  -3    0.08    0.99
  10  -6  -3   23.95    1.36
 -10   6   3   24.95    1.37
  10   6  -3   30.21    2.34
   8  -6  -3    1.58    0.56
  -8  -6   3    0.05    0.90
   8  -6  -3    1.66    0.56
   8   6  -3    2.73    0.98
   6  -6  -3    1.45    0.66
  -6  -6   3    1.10    0.87
   6  -6  -3    0.97    0.53
   6  -6  -3    0.55    0.49
   6   6  -3   -0.01    0.84
  -4  -6   3   10.80    1.43
   4  -6  -3    9.63    0.95
   4  -6  -3   11.86    1.16
   4  -6  -3   11.29    1.06
   4   6  -3   12.52    1.51
  -2  -6   3    0.23    0.80
   2  -6  -3    0.67    0.54
   2  -6  -3    0.54    0.47
   2  -6  -3    1.33    0.53
   0  -6  -3    1.31    0.64
   0  -6  -3    1.98    0.58
   0  -6   3    0.99    0.87
   0   6   3    0.80    0.70
   0   6  -3    1.13    0.83
  -2  -6  -3  115.53    3.69
   2  -6   3  101.34    3.91
   2   6   3  118.64    3.84
   2   6   3  115.13    4.05
  -2   6  -3  112.58    3.94
  -4  -6  -3   99.71    3.42
   4  -6   3   98.43    3.75
   4   6   3   99.57    3.82
   4   6   3   99.47    3.54
   6  -6   3   10.90    1.43
  -6  -6  -3   10.09    1.21
   6   6   3    9.46    1.29
   6   6   3   10.64    1.54
   8  -6   3   -0.95    0.80
   8   6   3    1.36    1.09
   8   6   3   -0.89    0.69
  10  -6   3   16.01    1.78
  10   6   3   15.12    1.99
  10   6   3   14.60    1.61
  12  -6   3   10.20    1.60
  12   6   3    7.51    1.38
  12   6   3    7.29    1.56
  14  -6   3    0.54    1.10
  14  -6   3   -0.03    1.15
  14   6   3    0.64    1.11
  14   6   3   -1.07    0.87
  16  -6   3   10.18    1.78
  16  -6   3   11.45    1.86
  16   6   3   14.42    2.00
  16   6   3    9.10    1.88
  18  -6   3    3.01    1.40
  18   6   3    6.26    1.61
  18   6   3    6.92    1.85
  20  -6   3    0.72    1.28
  20   6   3    1.34    1.39
  20   6   3    2.08    1.50
  22  -6   3    2.00    1.50
  22   6   3   -0.48    1.40
  22   6   3   -0.08    1.36
  24  -6   3    8.73    2.05
  24   6   3    7.52    2.15
  24   6   3   11.11    2.46
  26  -6   3    3.19    1.76
  26   6   3    1.70    1.85
  26   6   3    5.16    1.99
  31   7  -3   39.79    4.27
  31   7  -3   48.71    4.49
  29   7  -3   16.37    2.90
  29   7  -3   13.58    2.67
  27   7  -3   12.14    2.36
  27   7  -3   14.48    2.59
  25  -7  -3   22.07    2.04
  25   7  -3   17.87    2.64
  25   7  -3   20.81    2.69
  23  -7  -3   14.52    1.66
  23   7  -3   18.76    2.66
  23   7  -3   12.49    2.15
  21  -7  -3   86.36    3.41
  21   7  -3   92.40    4.56
  21   7  -3   84.22    4.51
  19  -7  -3   -0.94    0.72
  19   7  -3    0.98    1.25
  19   7  -3    0.02    1.23
  17   7  -3   53.39    3.36
  17   7  -3   55.51    3.30
 -17   7   3   49.52    2.42
  15  -7  -3    2.66    0.79
  15   7  -3    3.55    1.35
 -15   7   3    3.16    0.81
  13  -7  -3   79.15    2.84
 -13   7   3   75.56    2.78
  13   7  -3   74.54    3.61
  11  -7  -3   21.29    1.40
  11   7  -3   20.15    2.11
 -11   7   3   18.58    1.36
   9  -7  -3  166.33    4.89
   9  -7  -3  166.60    4.74
  -9  -7   3  169.15    5.78
   9   7  -3  166.55    5.68
   7  -7  -3  179.36    5.03
   7  -7  -3  182.37    5.23
  -7  -7   3  178.26    5.94
   7   7  -3  181.27    5.95
  -5  -7   3    5.83    1.24
   5  -7  -3    5.03    0.82
   5  -7  -3    6.51    0.93
   5   7  -3    4.79    1.29
  -3  -7   3   80.74    3.53
   3  -7  -3   87.81    3.12
   3  -7  -3   80.11    2.95
   3   7  -3   90.20    3.74
   1  -7  -3    0.43    0.64
  -1  -7   3    0.25    0.86
   1  -7   3  159.07    5.27
   1   7   3  158.06    5.04
   3  -7   3   66.71    3.10
   3   7   3   65.18    3.12
   3   7   3   72.25    3.02
   5  -7   3   73.22    3.27
   5   7   3   68.94    3.37
   5   7   3   67.67    3.03
   7  -7   3   51.19    2.70
   7   7   3   43.68    2.44
   7   7   3   39.07    2.74
   9  -7   3   48.56    2.76
   9   7   3   41.25    2.91
   9   7   3   46.83    2.66
  11  -7   3    4.40    1.30
  11   7   3    6.30    1.37
  11   7   3    5.04    1.53
  13  -7   3   50.52    3.10
  13   7   3   56.51    3.14
  13   7   3   54.03    3.39
  15  -7   3   19.32    2.27
  15  -7   3   20.78    2.30
  15   7   3   20.43    2.20
  15   7   3   21.83    2.58
  17  -7   3    0.45    1.12
  17  -7   3    0.19    1.22
  17   7   3    0.37    1.19
  17   7   3    0.44    1.43
  19  -7   3   11.53    2.05
  19   7   3   18.90    2.71
  19   7   3   14.41    2.22
  21  -7   3    2.80    1.56
  21   7   3    1.75    1.50
  21   7   3    1.33    1.59
  23  -7   3   21.15    2.64
  23   7   3   27.23    3.36
  23   7   3   31.63    3.33
  25  -7   3    1.81    1.61
  25   7   3    1.07    1.79
  25   7   3   -1.72    1.61
  30   8  -3    0.98    1.81
  30   8  -3    2.31    1.98
  28   8  -3   -0.36    1.82
  28   8  -3    1.91    1.96
  26   8  -3   13.36    2.68
  26   8  -3    9.43    2.26
  24   8  -3    4.95    1.84
  24   8  -3    5.76    1.92
  22  -8  -3    5.15    1.22
  22   8  -3    5.63    1.84
  22   8  -3    3.78    1.62
  20  -8  -3   10.54    1.44
  20   8  -3   10.49    2.08
  18   8  -3   -0.23    1.17
  16  -8  -3    0.10    0.71
  16   8  -3    0.74    1.26
  14  -8  -3    0.84    0.71
 -14   8   3    0.34    0.70
  14   8  -3   -1.16    1.02
  12  -8  -3    3.02    0.81
 -12  -8   3    1.44    1.24
  12   8  -3    1.16    1.23
 -12   8   3    1.63    0.76
  10  -8  -3   34.23    1.84
 -10  -8   3   37.11    2.70
  10  -8  -3   35.07    1.92
  10   8  -3   33.35    2.77
  -8  -8   3   13.68    1.91
   8  -8  -3   10.54    1.17
   8   8  -3   10.87    1.67
  -6  -8   3   44.04    2.71
   6  -8  -3   37.76    1.94
   6   8  -3   36.47    2.67
  -4  -8   3    3.32    1.18
   4  -8  -3    4.87    0.94
   4   8  -3    6.69    1.49
   2  -8  -3    3.21    0.89
  -2  -8   3    3.79    1.19
   0  -8   3   14.81    1.81
   0  -8  -3   14.58    1.54
   2  -8   3    1.38    1.03
  -2  -8  -3    2.05    0.91
   2   8   3    1.81    0.93
   4  -8   3   16.69    1.88
   4   8   3   12.18    1.56
   6  -8   3    4.29    1.25
   6   8   3    2.04    1.08
   6   8   3    2.37    1.21
   8  -8   3    3.40    1.27
   8   8   3    1.02    1.15
   8   8   3    1.66    1.03
  10  -8   3    4.08    1.28
  10   8   3    5.44    1.33
  10   8   3    7.91    1.80
  12  -8   3    3.98    1.32
  12   8   3    4.32    1.32
  12   8   3    2.72    1.37
  14  -8   3   15.21    2.07
  14   8   3   17.24    2.11
  14   8   3   17.82    2.48
  16  -8   3   10.44    1.83
  16  -8   3    4.83    1.56
  16   8   3   11.86    1.98
  16   8   3    3.70    1.89
  18  -8   3    4.40    1.64
  18   8   3    7.02    1.77
  18   8   3    4.06    1.81
  20  -8   3    2.59    1.58
  20   8   3    3.62    1.62
  20   8   3    4.68    1.80
  22  -8   3    1.25    1.53
  22   8   3    1.82    1.66
  22   8   3    1.90    1.89
  24  -8   3   -0.47    1.67
  24   8   3    2.35    1.99
  24   8   3    1.43    1.66
  27   9  -3   12.25    2.64
  25   9  -3    8.29    2.31
  23   9  -3   28.12    3.18
  21   9  -3   33.42    3.25
  19   9  -3   11.75    2.18
  17  -9  -3   73.96    3.07
  17   9  -3   73.56    4.27
  15  -9  -3    3.45    1.03
  15   9  -3    5.33    1.69
 -13  -9   3  100.53    4.88
  13  -9  -3  105.98    3.72
  13   9  -3  115.62    4.94
  11  -9  -3    3.32    0.93
 -11  -9   3    2.20    1.39
  11   9  -3    3.50    1.50
  -9  -9   3    7.19    1.66
   9  -9  -3    8.33    1.17
   9   9  -3    7.94    1.63
  -7  -9   3   45.30    3.00
   7  -9  -3   47.05    2.29
   7   9  -3   49.22    3.15
   5  -9  -3   -0.06    0.70
  -5  -9   3    0.42    1.06
   5   9  -3    0.35    1.21
   3  -9  -3   34.96    2.08
  -3  -9   3   34.36    2.58
  -1  -9   3   28.63    2.48
   1  -9  -3   29.65    2.02
   1  -9   3   30.37    2.65
  -1  -9  -3   34.33    2.25
  -3  -9  -3   18.22    1.95
   3  -9   3   21.27    2.15
   3   9   3   21.59    2.10
   5  -9   3   31.49    2.66
   5   9   3   30.65    2.50
   7  -9   3    8.91    1.69
   7   9   3   10.13    1.70
   9  -9   3   20.60    2.26
   9   9   3   17.65    2.04
   9   9   3   17.50    2.26
  11  -9   3   11.35    1.87
  11   9   3    8.86    1.93
  11   9   3   11.71    1.82
  13  -9   3  101.75    4.70
  13   9   3  112.22    5.48
  13   9   3  112.32    4.82
  15  -9   3   27.81    2.82
  15   9   3   28.84    2.79
  15   9   3   24.39    2.99
  17  -9   3   14.46    2.20
  17  -9   3   15.90    2.28
  17   9   3   15.69    2.32
  17   9   3   11.26    2.38
  19  -9   3   20.70    2.50
  19   9   3   23.15    3.19
  19   9   3   20.54    2.67
  21  -9   3   -1.10    1.46
  21   9   3    1.96    1.73
  21   9   3    1.24    1.80
  24  10  -3    2.15    1.83
  22  10  -3    1.95    1.85
  20  10  -3   -1.20    1.52
  18  10  -3    4.11    1.79
 -16 -10   3    9.45    2.24
  16  10  -3    9.86    2.08
 -14 -10   3   41.10    3.66
  14  10  -3   30.83    3.09
 -12 -10   3    1.75    1.47
  12 -10  -3   -0.20    0.89
  12  10  -3    0.10    1.40
  10 -10  -3   12.54    1.43
 -10 -10   3   11.64    2.00
  10  10  -3    9.04    1.84
  -8 -10   3    1.31    1.26
   8 -10  -3   -0.21    0.78
   8  10  -3    0.81    1.39
  -6 -10   3    2.29    1.29
   6 -10  -3    3.45    1.00
   4 -10  -3    1.77    0.90
  -4 -10   3    2.42    1.26
   2 -10  -3    7.23    1.35
  -2 -10   3    7.85    1.62
   0 -10  -3    0.48    0.88
   0 -10   3   -0.62    1.04
  -2 -10  -3    0.06    0.99
   2 -10   3    1.01    1.17
  -4 -10  -3   -1.51    0.94
   4 -10   3    0.09    1.10
   4  10   3    2.42    1.26
  -6 -10  -3    0.05    1.08
   6 -10   3   -0.52    1.06
   6  10   3    0.81    1.19
   8 -10   3   10.17    1.81
   8  10   3    9.31    1.78
  10 -10   3    3.73    1.52
  10  10   3    2.30    1.50
  12 -10   3    2.19    1.39
  12  10   3    1.93    1.45
  14 -10   3   -0.23    1.22
  14  10   3   -1.18    1.42
  14  10   3   -0.74    1.31
  16 -10   3   -0.44    1.29
  16  10   3    1.15    1.78
  16  10   3   -0.09    1.47
  18 -10   3   -1.13    1.61
  18  10   3   -1.69    1.56
  18  10   3    1.37    1.81
 -21 -11   3   48.03    4.50
  21  11  -3   49.84    4.32
 -19 -11   3    5.57    2.24
  19  11  -3    7.20    2.23
 -17 -11   3   32.65    3.53
  17  11  -3   31.27    3.36
 -15 -11   3    0.08    1.47
  15  11  -3   -0.19    1.62
 -13 -11   3   31.37    3.24
  13  11  -3   34.16    3.40
 -11 -11   3    1.80    1.49
  11  11  -3    0.05    1.55
  -9 -11   3   28.17    3.00
   9  11  -3   24.20    2.82
  -7 -11   3   78.02    4.25
   5 -11  -3    0.14    0.94
  -5 -11   3    0.03    1.26
   3 -11  -3   51.26    2.81
  -3 -11   3   51.40    3.35
  -1 -11   3   25.80    2.66
   1 -11  -3   21.10    2.18
  -1 -11  -3   82.83    3.90
   1 -11   3   90.84    4.33
  -3 -11  -3    0.37    1.11
   3 -11   3    0.72    1.25
  -5 -11  -3   26.72    2.66
   5 -11   3   24.61    2.62
  -7 -11  -3   19.77    2.49
   7 -11   3   15.80    2.20
   7  11   3   26.74    2.71
  -9 -11  -3   32.30    3.20
   9 -11   3   32.74    2.97
   9  11   3   29.02    2.95
  11 -11   3    8.51    1.88
  11  11   3   10.53    2.08
  13  11   3   61.44    4.03
  15  11   3   25.14    2.96
 -18 -12   3    2.74    2.03
  18  12  -3    2.43    2.06
 -16 -12   3    3.97    2.13
  16  12  -3    4.21    1.99
 -14 -12   3    7.46    2.18
  14  12  -3    6.17    2.21
 -12 -12   3    3.15    1.85
  12  12  -3    1.42    1.88
 -10 -12   3   -0.88    1.42
  10  12  -3    2.20    1.69
  -8 -12   3    2.53    1.58
  -6 -12   3   15.98    2.39
  -4 -12   3    3.08    1.53
  -2 -12   3   36.93    3.23
   0 -12   3    7.98    1.88
   2 -12   3    7.13    1.79
  -2 -12  -3    6.54    1.73
   4 -12   3    0.67    1.41
  -4 -12  -3    1.45    1.37
  -6 -12  -3    7.81    1.87
   6 -12   3    5.48    2.79
  -8 -12  -3   14.79    2.33
   8  12   3   11.66    2.18
 -10 -12  -3   -0.32    1.45
  10  12   3   -2.96    1.42
 -12 -12  -3   21.79    3.01
  12  12   3   13.20    2.42
 -11 -13   3   27.87    3.30
  -9 -13   3   10.41    2.29
  -7 -13   3   22.51    2.89
  -5 -13   3    1.81    1.69
  -3 -13   3   12.25    2.26
  36   0  -4    8.29    2.07
  36   0  -4    9.40    2.64
  34   0  -4   -2.41    1.63
  34   0  -4    0.14    1.26
  32   0  -4   69.11    3.95
  32   0  -4   72.04    4.48
  30   0  -4   52.74    3.28
  30   0  -4   56.71    3.98
  28   0  -4  153.30    5.55
  28   0  -4  142.35    5.94
  26   0  -4   40.02    2.57
  26   0  -4   34.50    2.98
  24   0  -4    2.69    1.06
  22   0  -4    0.76    0.84
  20   0  -4   17.04    1.60
 -18   0   4   89.37    3.22
  18   0  -4   94.87    3.30
  16   0  -4  231.45    6.28
 -16   0   4  232.59    6.24
  14   0  -4   55.36    2.12
 -14   0   4   56.99    2.12
  12   0  -4   84.88    2.96
 -12   0   4   92.74    2.73
  12   0  -4   87.68    2.69
  10   0  -4   11.21    1.01
 -10   0   4    9.30    0.79
  10   0  -4   10.86    0.85
   8   0  -4    2.40    0.57
  -8   0   4    1.77    0.43
  -6   0   4  705.07   16.12
   6   0  -4  698.16   16.08
  -6   0   4  705.85   16.08
  -4   0   4   41.66    1.28
  -4   0   4   44.73    1.47
   4   0  -4   42.32    1.44
   4   0  -4   42.71    1.29
   2   0  -4  392.84    9.22
  -2   0   4  371.91    9.20
  -2   0   4  401.11    8.97
   0   0   4   14.30    1.02
  -2   0  -4  192.62    5.24
   2   0   4  206.87    5.25
   2   0   4  182.60    5.26
  -4   0  -4    0.76    0.62
   4   0   4    2.16    0.79
  -4   0  -4    2.38    0.76
   4   0   4    1.77    0.78
  -6   0  -4   37.13    1.89
  -6   0  -4   39.92    2.06
   6   0   4   40.28    2.10
   8   0   4  215.55    6.38
  -8   0  -4  226.74    6.40
  -8   0  -4  225.68    6.49
  10   0   4   26.68    1.91
  12   0   4  215.65    6.66
  14   0   4   75.09    3.45
  16   0   4   17.57    2.02
  18   0   4    1.40    1.13
  20   0   4   45.66    3.11
  22   0   4   41.36    3.52
  24   0   4   73.43    4.26
  26   0   4    5.86    2.00
  28   0   4   36.12    3.60
  30   0   4   13.33    2.92
  30   0   4    9.42    2.60
  37  -1  -4    4.15    1.67
  37  -1  -4    2.30    2.28
  37   1  -4    4.06    2.24
  37   1  -4    3.33    1.78
  35  -1  -4    3.86    1.60
  35  -1  -4    3.79    2.01
  35   1  -4    1.06    1.84
  35   1  -4    1.72    1.57
  33  -1  -4    2.54    1.85
  33  -1  -4    5.18    1.57
  33   1  -4    6.28    2.10
  33   1  -4    5.78    1.77
  31  -1  -4    1.43    1.23
  31   1  -4    3.30    1.40
  31   1  -4    3.38    1.59
  29  -1  -4    2.99    1.18
  29   1  -4    1.17    1.44
  29   1  -4    3.46    1.38
  27  -1  -4    0.46    0.97
  27   1  -4   -0.09    1.25
  27   1  -4    0.09    0.89
  25  -1  -4    4.13    1.14
  25   1  -4    3.56    1.44
  25   1  -4    1.07    0.91
  23  -1  -4   10.91    1.38
  23   1  -4   14.66    1.73
  23   1  -4    7.55    1.49
  21  -1  -4   -0.66    0.64
  21   1  -4   -0.21    0.94
  21   1  -4    0.23    0.76
  19  -1  -4    9.33    1.13
 -19   1   4    9.16    1.12
  19   1  -4    8.52    1.21
  19   1  -4    8.53    1.38
  17  -1  -4    2.19    0.71
 -17  -1   4    2.34    0.84
  17   1  -4    2.28    0.91
 -17   1   4    2.85    0.74
  17   1  -4    1.64    0.75
  15  -1  -4   46.40    1.87
 -15  -1   4   47.72    2.13
 -15   1   4   47.79    1.86
  15   1  -4   47.17    2.28
  15   1  -4   42.84    2.02
 -13  -1   4   54.81    2.10
  13  -1  -4   52.89    1.85
  13   1  -4   54.42    2.19
  13   1  -4   54.53    2.36
 -13   1   4   51.18    1.85
 -11  -1   4  136.18    3.99
  11  -1  -4  136.15    3.48
 -11  -1   4  135.88    3.84
  11   1  -4  131.03    3.81
  11   1  -4  129.64    3.97
 -11   1   4  136.37    3.49
  -9  -1   4   76.24    2.49
   9  -1  -4   74.72    2.00
  -9  -1   4   79.23    2.45
  -9   1   4   77.91    2.01
   9   1  -4   76.41    2.44
   9   1  -4   76.68    2.57
  -7  -1   4    0.33    0.45
  -7   1   4    1.11    0.19
   7   1  -4    0.54    0.49
  -5  -1   4    9.97    0.76
  -5  -1   4    6.11    0.69
   5  -1  -4    8.97    0.51
   5   1  -4    9.08    0.81
  -5   1   4    8.01    0.46
  -5   1   4    9.14    0.53
   5   1  -4    7.98    0.67
   3  -1  -4   19.93    0.82
  -3  -1   4   19.24    0.99
   3  -1  -4   19.20    0.84
  -3  -1   4   19.16    1.15
  -3   1   4   18.30    0.85
  -3   1   4   19.64    0.86
   3   1  -4   20.05    1.01
   3   1  -4   18.46    1.09
   1  -1  -4   38.72    1.48
   1  -1  -4   39.93    1.47
  -1  -1   4   40.52    1.71
  -1   1   4   39.93    1.51
   1   1  -4   40.22    1.67
  -1   1   4   40.04    1.52
  -1  -1  -4   12.47    1.02
   1  -1   4   10.26    1.02
  -1  -1  -4   12.41    1.01
  -1   1  -4   11.11    1.05
   1   1   4   12.24    1.02
  -3  -1  -4  112.94    3.54
  -3  -1  -4  118.50    3.64
   3  -1   4  119.07    3.76
   3   1   4  120.73    3.67
  -3   1  -4  117.36    3.68
  -5  -1  -4   -0.57    0.60
   5  -1   4    0.49    0.77
   5  -1   4   -0.18    0.69
  -5  -1  -4    0.40    0.61
   5   1   4    0.40    0.74
  -5   1  -4    1.19    0.69
   7  -1   4   20.01    1.66
  -7  -1  -4   15.56    1.46
   7  -1   4   16.36    1.58
  -7  -1  -4   20.12    1.71
  -7   1  -4   16.85    1.57
   7   1   4   13.70    1.41
   9  -1   4    1.34    0.85
   9   1   4    0.52    0.79
  11  -1   4    7.90    1.33
  11   1   4    9.18    1.34
  13  -1   4    6.37    1.33
  13   1   4    6.59    1.31
  15  -1   4    0.92    1.04
  15   1   4   -0.50    0.91
  17  -1   4    4.89    1.38
  17   1   4    3.98    1.31
  19  -1   4    1.77    1.24
  19   1   4    1.11    1.17
  21  -1   4    0.94    1.17
  21   1   4    0.84    1.22
  23  -1   4    5.86    1.75
  23   1   4    1.01    1.51
  23   1   4    1.80    1.59
  25  -1   4    6.15    1.91
  25   1   4   10.68    2.21
  25   1   4    7.49    2.16
  27  -1   4   -1.97    1.39
  27   1   4    0.03    1.56
  27   1   4    0.52    1.63
  29  -1   4   -0.36    1.71
  29   1   4   -1.99    1.86
  29   1   4    4.96    2.02
  36  -2  -4   31.82    2.99
  36   2  -4   21.74    3.03
  36   2  -4   17.34    2.91
  34  -2  -4    8.38    1.89
  34   2  -4   12.00    2.26
  34   2  -4    7.89    2.22
  32  -2  -4    9.23    1.71
  32   2  -4   11.59    2.16
  32   2  -4    6.57    2.10
  30  -2  -4   11.98    1.76
  30   2  -4   11.54    1.97
  30   2  -4   12.12    2.27
  28  -2  -4  132.33    4.91
  28   2  -4  128.46    5.29
  28   2  -4  133.98    5.73
  26  -2  -4    1.72    0.94
  26   2  -4    2.09    1.32
  26   2  -4   -0.51    1.06
  24  -2  -4  101.99    3.82
  24   2  -4   97.41    4.39
  24   2  -4  109.06    4.40
  22  -2  -4    4.66    0.98
  22   2  -4    5.09    1.19
  22   2  -4    4.54    1.32
  20  -2  -4  154.36    4.70
  20   2  -4  150.14    5.18
 -20   2   4  157.88    4.72
  20   2  -4  159.78    5.44
  18  -2  -4   56.52    2.22
  18   2  -4   54.78    2.66
  18   2  -4   53.22    2.71
 -18   2   4   56.19    2.23
 -18   2   4   58.04    2.48
  16  -2  -4  322.31    8.14
 -16  -2   4  336.95    8.72
  16   2  -4  325.95    8.88
 -16   2   4  320.09    8.14
 -16   2   4  331.17    8.45
  16   2  -4  324.51    8.74
 -14  -2   4  326.75    8.59
  14  -2  -4  325.22    8.01
 -14  -2   4  336.84    8.72
  14   2  -4  327.02    8.65
  14   2  -4  332.89    8.79
 -12  -2   4   42.54    2.03
 -12  -2   4   39.34    1.90
  12  -2  -4   43.74    1.43
  12   2  -4   44.42    2.01
  12   2  -4   42.73    2.05
 -10  -2   4   58.69    2.26
  10  -2  -4   56.09    1.57
 -10  -2   4   59.48    2.30
  10   2  -4   59.13    2.30
  10   2  -4   58.51    2.36
  -8  -2   4    6.48    0.82
  -8  -2   4    7.58    0.88
  -8   2   4    6.87    0.48
   8   2  -4    7.29    0.95
  -6  -2   4  949.88   21.99
  -6  -2   4  953.06   22.14
   6  -2  -4  967.62   21.35
   6   2  -4  944.78   22.02
  -6   2   4  942.18   21.35
  -4  -2   4    1.35    0.71
   4  -2  -4    2.03    0.37
   4  -2  -4    2.46    0.31
  -4  -2   4    2.37    0.61
   4   2  -4    0.88    0.57
  -4   2   4    2.62    0.42
   4   2  -4    3.28    0.73
   2  -2  -4  734.86   16.26
  -2  -2   4  709.32   16.94
   2  -2  -4  715.69   16.61
  -2  -2   4  748.42   16.86
   2   2  -4  703.87   16.90
  -2   2   4  712.69   16.62
  -2   2   4  731.69   16.27
   2   2  -4  708.15   16.84
   0  -2  -4   42.18    1.65
   0  -2   4   39.74    1.90
   0   2   4   43.20    1.70
   0   2   4   41.60    1.34
   0   2  -4   42.30    1.86
   2  -2   4  193.38    5.44
  -2  -2  -4  194.27    5.26
   2   2   4  189.99    4.89
   2   2   4  196.01    5.33
  -2   2  -4  195.79    5.40
   4  -2   4   10.75    1.26
  -4  -2  -4   11.48    1.23
   4   2   4   11.15    0.97
  -4   2  -4    9.83    1.14
   4   2   4    8.79    1.09
   6  -2   4  336.76    8.95
  -6  -2  -4  349.05    8.87
  -6   2  -4  330.59    8.84
   6   2   4  325.61    8.82
   6   2   4  333.34    8.49
   8  -2   4   92.99    3.59
   8  -2   4   95.05    3.67
   8   2   4   92.25    3.57
  -8   2  -4   99.26    3.89
   8   2   4   89.03    3.22
  10  -2   4    0.34    0.86
  10  -2   4    0.21    0.93
  10   2   4    0.99    0.73
  10   2   4    0.62    0.85
  12  -2   4   56.77    2.86
  12   2   4   61.43    3.04
  12   2   4   65.33    2.92
  14  -2   4    1.57    1.13
  14   2   4    1.32    1.01
  14   2   4    1.49    0.94
  16  -2   4  120.85    4.85
  16   2   4  128.30    4.87
  16   2   4  124.52    5.01
  18  -2   4    0.89    1.23
  18   2   4    0.69    1.13
  18   2   4    2.55    1.34
  20  -2   4  116.53    5.00
  20   2   4  111.00    5.03
  20   2   4  122.27    5.22
  22  -2   4   48.56    3.24
  22   2   4   51.75    3.56
  22   2   4   35.90    3.36
  24  -2   4   11.97    2.19
  24   2   4    8.56    1.99
  24   2   4   10.55    2.24
  26  -2   4    6.03    1.89
  26   2   4    4.05    1.92
  26   2   4    3.72    1.94
  28  -2   4   29.52    3.32
  28   2   4   32.98    3.77
  28   2   4   29.64    3.49
  37   3  -4    1.79    2.06
  37   3  -4    2.03    1.66
  35  -3  -4    0.39    1.32
  35   3  -4    1.42    1.53
  35   3  -4    0.98    1.85
  33  -3  -4   17.80    2.22
  33   3  -4   20.40    2.83
  33   3  -4   18.44    2.77
  31  -3  -4   18.97    2.09
  31   3  -4   17.70    2.50
  31   3  -4   14.31    2.46
  29  -3  -4    0.51    0.98
  29   3  -4    0.57    1.19
  29   3  -4   -1.51    1.32
  27  -3  -4    4.45    1.22
  27   3  -4    6.96    1.76
  27   3  -4    5.00    1.49
  25  -3  -4   75.57    3.20
  25   3  -4   70.01    3.67
  25   3  -4   75.71    4.03
  23  -3  -4    4.12    0.96
  23   3  -4    4.49    1.43
  23   3  -4    2.69    1.17
  21  -3  -4   26.38    1.66
  21   3  -4   28.38    2.35
  21   3  -4   24.21    2.24
  19  -3  -4   49.35    2.11
  19   3  -4   49.31    2.75
  19   3  -4   54.26    2.82
 -19   3   4   51.58    2.44
  17  -3  -4   42.41    1.78
 -17   3   4   45.30    2.08
  17   3  -4   45.37    2.46
  17   3  -4   43.54    2.46
  15  -3  -4   10.10    0.87
  15   3  -4    6.53    1.13
  15   3  -4    8.93    1.35
 -15   3   4    9.99    1.06
  13  -3  -4   48.53    1.67
 -13  -3   4   53.27    2.41
 -13  -3   4   49.13    2.35
 -13   3   4   51.31    1.95
  13   3  -4   51.24    2.49
  13   3  -4   49.83    2.37
  11  -3  -4   23.38    0.98
 -11  -3   4   25.86    1.68
 -11  -3   4   27.32    1.67
 -11   3   4   24.87    1.11
  11   3  -4   25.73    1.74
  11   3  -4   24.03    1.71
  -9  -3   4   15.12    1.31
  -9  -3   4   14.05    1.26
  -9   3   4   14.20    0.71
   9   3  -4   17.22    1.45
   7  -3  -4  157.99    3.84
  -7  -3   4  156.90    4.51
  -7  -3   4  161.58    4.73
  -7  -3   4  157.87    4.54
   7   3  -4  155.00    4.60
   5  -3  -4  233.18    5.60
  -5  -3   4  233.92    6.29
  -5  -3   4  233.91    6.15
   5  -3  -4  229.63    5.40
   5   3  -4  235.39    6.22
  -5   3   4  231.83    5.62
   5   3  -4  221.05    6.14
  -3  -3   4   59.54    2.41
   3  -3  -4   59.20    1.91
  -3  -3   4   58.96    2.31
   3  -3  -4   60.72    1.81
   3   3  -4   61.77    2.40
   3   3  -4   62.63    2.37
  -3   3   4   59.71    1.99
   1  -3  -4  218.62    5.22
  -1  -3   4  214.88    5.88
   1  -3  -4  212.35    5.51
  -1  -3   4  216.92    5.78
  -1   3   4  211.86    5.23
   1   3  -4  206.95    5.77
  -1   3   4  206.07    5.54
  -1  -3  -4    7.43    0.64
  -1  -3  -4    5.73    0.80
   1  -3   4    5.81    1.04
  -1   3  -4    6.11    1.00
   1   3   4    7.16    0.70
   1   3   4    5.54    0.87
  -3  -3  -4   14.00    1.29
  -3  -3  -4   10.93    0.87
   3  -3   4    6.35    1.06
   3   3   4    8.45    1.16
   3   3   4    9.89    0.88
  -3   3  -4    8.86    1.07
   5  -3   4    1.11    0.84
  -5  -3  -4    0.18    0.73
   5   3   4    0.65    0.84
  -5   3  -4    0.14    0.75
   5   3   4    0.25    0.56
   7  -3   4  150.47    4.82
  -7   3  -4  136.83    4.62
   7   3   4  134.14    4.64
   7   3   4  146.97    4.33
   9  -3   4   31.57    2.09
   9  -3   4   31.01    2.17
   9   3   4   28.46    2.02
   9   3   4   26.34    1.74
  11  -3   4   33.44    2.34
  11  -3   4   33.98    2.16
  11   3   4   32.87    2.08
  11   3   4   30.22    2.21
  13  -3   4   58.40    2.95
  13   3   4   53.18    2.80
  13   3   4   60.46    3.23
  15  -3   4    1.28    1.07
  15   3   4    2.45    1.22
  15   3   4    0.76    0.99
  17  -3   4   31.52    2.72
  17   3   4   29.56    2.55
  17   3   4   30.90    2.85
  19  -3   4    0.74    1.16
  19   3   4   -1.37    1.02
  19   3   4    2.70    1.38
  21  -3   4   -0.87    1.27
  21   3   4    4.70    1.65
  21   3   4    2.51    1.52
  23  -3   4    7.07    1.70
  23   3   4    4.04    1.73
  23   3   4    2.69    1.56
  25  -3   4    2.06    1.60
  25   3   4    1.21    1.62
  25   3   4    5.67    2.08
  27  -3   4    1.03    1.64
  27   3   4    0.33    1.83
  27   3   4    1.46    1.81
  29  -3   4    1.68    1.77
  29   3   4   -0.63    1.86
  29   3   4    3.32    1.98
  36   4  -4   10.97    2.56
  36   4  -4   18.41    3.07
  34  -4  -4   21.19    2.91
  34   4  -4   23.59    3.15
  34   4  -4   21.07    2.86
  32  -4  -4   34.85    2.81
  32   4  -4   39.50    3.83
  32   4  -4   29.23    3.16
  30  -4  -4   21.84    2.20
  30   4  -4   24.32    3.10
  30   4  -4   23.06    2.83
  28  -4  -4   36.68    2.38
  28   4  -4   29.98    2.97
  28   4  -4   35.13    3.15
  26  -4  -4   -0.82    0.75
  26   4  -4    1.54    1.24
  26   4  -4    0.39    1.18
  24  -4  -4   93.96    3.57
  24   4  -4  101.73    4.55
  24   4  -4   95.55    4.53
  22  -4  -4   23.07    1.64
  22   4  -4   23.86    2.40
  22   4  -4   28.02    2.50
  20  -4  -4  151.14    4.59
 -20   4   4  159.95    4.99
  20   4  -4  151.65    5.48
  20   4  -4  157.42    5.61
  18  -4  -4    3.29    0.72
 -18   4   4    3.57    0.85
  18   4  -4    3.50    1.20
  18   4  -4    4.98    1.20
  16  -4  -4  103.73    3.17
  16   4  -4  105.57    4.09
 -16   4   4  107.00    3.42
  16   4  -4  109.43    4.10
  14  -4  -4  147.11    3.90
  14   4  -4  140.96    4.81
 -14   4   4  145.44    4.08
  14   4  -4  138.44    4.79
 -12   4   4   58.68    1.97
  12   4  -4   61.95    2.77
  12   4  -4   57.08    2.65
  10  -4  -4  570.32   13.24
 -10  -4   4  567.97   14.14
 -10  -4   4  590.45   14.22
 -10   4   4  562.82   13.24
  10   4  -4  580.08   14.26
  -8  -4   4  163.09    4.74
   8  -4  -4  157.36    3.82
   8  -4  -4  153.62    3.97
  -8  -4   4  158.00    4.71
  -8  -4   4  149.08    4.83
   8   4  -4  151.11    4.72
   6  -4  -4  546.03   12.85
   6  -4  -4  548.80   12.65
  -6  -4   4  572.07   13.58
  -6  -4   4  536.55   13.64
   6  -4  -4  546.67   13.09
   6   4  -4  557.99   13.61
  -4  -4   4    1.01    0.67
  -4  -4   4    1.42    0.81
   4  -4  -4    0.55    0.39
   4  -4  -4    0.51    0.41
   4   4  -4    1.20    0.77
  -4   4   4    0.87    0.52
   4   4  -4    0.78    0.73
  -2  -4   4  274.81    7.47
  -2  -4   4  275.63    7.39
   2  -4  -4  284.39    7.04
   2  -4  -4  279.77    6.85
   2   4  -4  280.89    7.41
  -2   4   4  269.02    7.08
  -2   4   4  271.84    6.88
   2   4  -4  276.39    7.48
   0  -4   4   78.43    3.03
   0  -4  -4   76.80    2.42
   0  -4   4   78.87    2.93
   0  -4  -4   75.67    2.67
   0   4  -4   79.77    2.95
   0   4   4   78.90    2.80
   0   4   4   80.75    2.52
  -2  -4  -4  149.66    4.14
  -2  -4  -4  149.98    4.52
   2  -4   4  152.91    4.78
   2  -4   4  155.46    4.75
  -2   4  -4  145.75    4.63
   2   4   4  153.99    4.65
   2   4   4  150.98    4.21
   4  -4   4   58.47    2.86
  -4  -4  -4   54.29    2.43
  -4  -4  -4   56.52    2.16
   4   4   4   59.61    2.60
   4   4   4   57.57    2.23
  -4   4  -4   58.37    2.56
   6  -4   4   62.43    2.88
  -6   4  -4   56.94    2.71
   6   4   4   61.27    2.46
   6   4   4   63.35    2.84
   8  -4   4   71.36    3.16
   8   4   4   69.88    2.81
   8   4   4   68.37    3.14
  10  -4   4   78.74    3.53
  10   4   4   84.23    3.73
  10   4   4   78.69    3.22
  12  -4   4   47.76    2.80
  12  -4   4   43.96    2.81
  12   4   4   51.16    2.92
  12   4   4   49.96    2.60
  14  -4   4    6.69    1.38
  14   4   4    8.19    1.41
  14   4   4    9.57    1.80
  16  -4   4   39.73    2.79
  16   4   4   30.75    2.86
  16   4   4   36.36    2.64
  18  -4   4    0.96    1.27
  18   4   4    0.53    1.34
  18   4   4    1.35    1.21
  20  -4   4   57.43    3.59
  20   4   4   59.39    3.84
  20   4   4   58.73    3.62
  22  -4   4    1.01    1.34
  22   4   4    0.79    1.37
  22   4   4   -0.42    1.31
  24  -4   4   27.54    2.91
  24   4   4   25.12    3.10
  24   4   4   25.94    2.92
  26  -4   4    8.90    2.08
  26   4   4    8.12    2.16
  26   4   4    9.87    2.32
  28  -4   4   19.85    2.88
  28   4   4   22.17    3.18
  28   4   4   24.86    3.44
  35   5  -4   13.44    2.79
  35   5  -4   13.15    2.80
  33   5  -4   -0.34    1.61
  33   5  -4   -0.68    1.54
  31  -5  -4   -0.90    0.98
  31   5  -4    2.98    1.66
  31   5  -4   -1.24    1.40
  29  -5  -4   -0.70    0.91
  29   5  -4    1.05    1.42
  29   5  -4   -1.36    1.34
  27  -5  -4    0.45    0.83
  27   5  -4    2.35    1.51
  27   5  -4    3.36    1.47
  25  -5  -4    0.74    0.83
  25   5  -4    1.07    1.25
  25   5  -4    0.57    1.21
  23  -5  -4   17.14    1.53
  23   5  -4   17.90    2.28
  23   5  -4   16.02    2.12
  21  -5  -4    7.81    1.09
  21   5  -4    7.23    1.52
  21   5  -4    9.43    1.78
  19  -5  -4    3.39    0.78
  19   5  -4    1.80    1.19
 -19   5   4    4.57    0.97
  19   5  -4    4.38    1.33
  17  -5  -4   10.17    1.01
  17   5  -4   11.36    1.69
 -17   5   4   12.34    1.24
  17   5  -4    9.66    1.54
  15  -5  -4    2.25    0.59
 -15   5   4    2.73    0.68
  15   5  -4    2.05    1.02
  15   5  -4    2.91    1.15
 -13   5   4   23.31    1.28
  13   5  -4   25.10    2.04
  11  -5  -4    7.16    0.72
  11   5  -4    6.00    1.13
 -11   5   4    7.79    0.74
   9  -5  -4   46.11    1.68
  -9  -5   4   45.33    2.49
   9  -5  -4   44.49    1.56
   9   5  -4   45.55    2.46
  -7  -5   4   76.34    3.16
   7  -5  -4   72.30    2.37
   7  -5  -4   74.45    2.27
   7  -5  -4   75.05    2.63
   7   5  -4   76.17    3.12
  -5  -5   4    5.30    1.16
  -5  -5   4    4.57    1.12
   5  -5  -4    4.17    0.69
   5  -5  -4    4.30    0.57
   5  -5  -4    3.92    0.66
   5   5  -4    2.94    0.91
   3  -5  -4    9.53    0.95
   3  -5  -4    9.53    0.88
  -3  -5   4   10.54    1.42
   3   5  -4    9.92    1.33
   3   5  -4   12.26    1.38
  -1  -5   4   56.67    2.71
   1  -5  -4   53.04    2.18
   1  -5  -4   56.02    2.07
   1   5  -4   61.35    2.57
  -1   5   4   60.42    2.42
  -1   5   4   55.82    2.18
  -1  -5  -4   52.58    2.03
  -1  -5  -4   57.84    2.37
   1  -5   4   57.83    2.64
   1   5   4   53.84    2.45
  -1   5  -4   52.11    2.44
   1   5   4   53.67    2.15
  -3  -5  -4    1.75    0.56
   3  -5   4    1.61    0.93
   3   5   4    1.47    0.86
  -3   5  -4   -0.38    0.69
   3   5   4    0.98    0.63
  -5  -5  -4    4.24    0.81
   5  -5   4    4.86    1.12
   5   5   4    2.09    0.74
   5   5   4    3.21    1.09
   7  -5   4    0.29    0.85
  -7  -5  -4   -0.10    0.57
   7   5   4    0.11    0.83
   7   5   4    0.19    0.74
   9  -5   4    4.40    1.16
   9   5   4    4.25    1.17
   9   5   4    4.18    1.03
  11  -5   4    4.31    1.25
  11   5   4    5.64    1.43
  11   5   4    6.86    1.23
  13  -5   4   28.34    2.40
  13  -5   4   29.26    2.56
  13   5   4   22.64    2.05
  13   5   4   30.62    2.79
  15  -5   4   36.17    2.92
  15  -5   4   33.93    2.99
  15   5   4   37.53    2.67
  15   5   4   34.90    3.03
  17  -5   4    5.22    1.56
  17   5   4    5.47    1.53
  17   5   4    6.43    1.83
  19  -5   4    4.45    1.62
  19   5   4    3.90    1.52
  19   5   4    7.88    1.94
  21  -5   4    7.18    1.83
  21   5   4    6.09    2.08
  21   5   4    8.30    1.86
  23  -5   4    5.50    1.76
  23   5   4    0.35    1.36
  23   5   4    2.43    1.58
  25  -5   4    0.62    1.50
  25   5   4   -0.11    1.77
  25   5   4   -1.23    1.47
  27  -5   4   10.32    2.37
  27   5   4    8.69    2.47
  27   5   4   10.00    2.35
  34   6  -4   19.29    2.93
  34   6  -4   10.72    2.66
  32   6  -4   14.58    2.73
  32   6  -4   14.88    2.82
  30   6  -4    5.95    2.07
  30   6  -4    5.54    1.99
  28  -6  -4   12.81    1.62
  28   6  -4   11.09    2.35
  28   6  -4   13.45    2.29
  26  -6  -4    0.44    0.87
  26   6  -4   -0.35    1.45
  26   6  -4   -0.96    1.19
  24  -6  -4   79.38    3.22
  24   6  -4   89.15    4.52
  24   6  -4   76.82    4.36
  22  -6  -4   -0.23    0.70
  22   6  -4   -0.34    1.11
  22   6  -4    0.14    1.26
  20  -6  -4   85.61    3.11
  20   6  -4   85.34    4.17
  20   6  -4   91.93    4.38
 -20   6   4   88.78    3.43
  18  -6  -4    1.75    0.66
  18   6  -4    0.16    1.10
 -18   6   4    0.78    0.72
  18   6  -4    1.90    1.12
 -16   6   4   14.85    1.30
  16   6  -4   12.27    1.72
  16   6  -4   16.90    1.97
  14  -6  -4   46.28    1.91
  14   6  -4   44.57    2.67
 -14   6   4   50.76    1.98
  12  -6  -4    7.73    0.84
  12   6  -4    7.79    1.34
 -12   6   4    9.43    0.89
  10  -6  -4  195.99    5.01
 -10  -6   4  196.87    6.23
  10  -6  -4  187.86    5.15
  10   6  -4  185.99    6.08
   8  -6  -4   -0.12    0.49
   8  -6  -4   -0.46    0.43
   8  -6  -4    0.12    0.41
  -8  -6   4    0.73    0.91
   8   6  -4    0.82    0.85
   6  -6  -4   57.19    2.03
   6  -6  -4   63.50    2.42
  -6  -6   4   63.02    2.94
   6  -6  -4   54.86    2.18
   6   6  -4   60.35    2.90
   4  -6  -4    0.27    0.40
   4  -6  -4    2.21    0.56
  -4  -6   4    1.68    0.94
   4  -6  -4    1.45    0.56
   4   6  -4    0.30    0.79
  -2  -6   4  127.89    4.45
   2  -6  -4  124.93    3.87
   2  -6  -4  126.36    3.97
   0  -6   4   58.54    2.82
   0  -6  -4   56.92    2.45
   0  -6  -4   60.14    2.30
   0   6   4   58.28    2.44
   0   6   4   56.93    2.62
  -2  -6  -4  290.51    7.50
   2  -6   4  279.84    8.03
   2   6   4  281.59    7.97
   2   6   4  282.46    7.60
  -4  -6  -4   64.07    2.59
   4  -6   4   70.82    3.14
   4   6   4   67.92    2.76
   4   6   4   64.63    3.09
   6  -6   4  192.21    6.22
  -6  -6  -4  201.40    5.74
   6   6   4  205.05    5.89
   6   6   4  187.53    6.29
   8  -6   4   42.27    2.57
   8   6   4   41.97    2.69
   8   6   4   46.72    2.43
  10  -6   4   36.74    2.56
  10   6   4   41.53    2.43
  10   6   4   43.03    2.80
  12  -6   4   68.06    3.55
  12   6   4   71.21    3.32
  12   6   4   72.69    3.78
  14  -6   4    0.92    1.16
  14  -6   4    1.50    1.18
  14   6   4    2.31    1.43
  14   6   4    1.39    1.06
  16  -6   4  115.50    5.00
  16  -6   4  114.49    4.87
  16   6   4  118.47    4.81
  16   6   4  114.53    5.27
  18  -6   4    2.33    1.46
  18   6   4   -0.37    1.28
  18   6   4    1.17    1.26
  20  -6   4   66.55    3.88
  20   6   4   70.58    4.54
  20   6   4   60.76    3.89
  22  -6   4    0.44    1.45
  22   6   4    1.97    1.77
  22   6   4   -0.03    1.44
  24  -6   4   12.38    2.34
  24   6   4   16.33    2.61
  24   6   4   18.05    3.01
  26  -6   4   10.98    2.37
  26   6   4   12.55    2.70
  26   6   4   14.11    2.63
  31   7  -4   -2.70    1.40
  31   7  -4   -2.44    1.57
  29   7  -4   -1.64    1.63
  29   7  -4    0.95    1.55
  27   7  -4    7.12    2.18
  27   7  -4    5.51    1.88
  25  -7  -4    4.51    1.12
  25   7  -4    3.91    1.76
  25   7  -4    2.60    1.69
  23  -7  -4   22.50    1.82
  23   7  -4   22.81    2.75
  23   7  -4   18.46    2.37
  21  -7  -4   31.53    1.92
  21   7  -4   26.65    2.76
  21   7  -4   36.12    3.18
  19  -7  -4   15.75    1.44
  19   7  -4   17.36    2.22
 -19   7   4   18.02    1.64
 -17   7   4   -0.07    0.68
  17   7  -4   -0.87    1.01
  15  -7  -4   -0.48    0.55
 -15   7   4    0.64    0.61
  15   7  -4    0.70    1.12
  13  -7  -4   19.22    1.29
  13   7  -4   18.74    2.12
 -13   7   4   20.71    1.31
 -11  -7   4   24.65    2.35
  11  -7  -4   27.83    1.45
  11  -7  -4   25.67    1.48
  11   7  -4   25.73    2.31
   9  -7  -4   54.17    2.16
  -9  -7   4   46.44    2.83
   9  -7  -4   51.42    1.99
   9   7  -4   48.81    2.81
  -7  -7   4   -0.20    0.91
   7  -7  -4   -0.48    0.43
   7  -7  -4   -0.11    0.51
   7   7  -4   -0.53    0.88
   5  -7  -4   -0.68    0.42
  -5  -7   4    1.57    1.03
   5  -7  -4    2.11    0.67
   5   7  -4    1.19    0.96
   3  -7  -4   51.18    2.46
   3  -7  -4   51.42    2.13
   3  -7  -4   49.58    2.23
  -3  -7   4   44.79    2.69
   1  -7  -4   -0.89    0.42
   1  -7  -4   -0.79    0.50
  -1  -7   4    0.01    0.93
  -1  -7  -4    5.39    0.93
   1  -7   4    6.03    1.29
   1   7   4    7.04    1.15
   1   7   4    7.19    1.21
   3  -7   4    0.75    0.95
   3   7   4    0.42    0.81
   3   7   4    0.44    0.93
   5  -7   4    9.97    1.53
   5   7   4    7.32    1.22
   5   7   4    9.72    1.57
   7  -7   4   10.29    1.59
   7   7   4    8.58    1.56
   7   7   4    6.09    1.20
   9  -7   4   -1.06    0.95
   9   7   4    1.00    0.94
   9   7   4   -1.12    1.07
  11  -7   4    1.13    1.13
  11   7   4   -0.93    1.16
  11   7   4    0.47    0.99
  13  -7   4    6.05    1.57
  13   7   4    6.10    1.71
  13   7   4    3.77    1.29
  15  -7   4   28.87    2.76
  15  -7   4   26.79    2.73
  15   7   4   25.87    2.88
  15   7   4   28.68    2.58
  17  -7   4    4.37    1.57
  17  -7   4    5.30    1.62
  17   7   4    2.73    1.60
  17   7   4    6.48    1.71
  19  -7   4    1.44    1.48
  19   7   4    0.99    1.58
  19   7   4    3.67    1.55
  21  -7   4    3.58    1.67
  21   7   4    3.01    1.83
  21   7   4    2.64    1.64
  23  -7   4   -1.18    1.53
  23   7   4    1.55    1.92
  23   7   4    2.46    1.75
  25  -7   4   -0.41    1.59
  25   7   4    0.74    1.88
  25   7   4    1.59    1.96
  30   8  -4    5.33    2.11
  30   8  -4    7.31    2.37
  28   8  -4   19.59    2.91
  28   8  -4   20.74    2.95
  26   8  -4    7.57    2.17
  26   8  -4    5.47    1.87
  24   8  -4   77.46    4.61
  22  -8  -4   10.48    1.50
  22   8  -4   11.90    2.25
  20  -8  -4   25.92    1.95
  20   8  -4   31.52    3.03
  18   8  -4   17.10    2.26
  16  -8  -4   23.16    1.53
  16   8  -4   17.70    2.20
 -14  -8   4   14.49    2.08
  14  -8  -4   13.60    1.26
  14  -8  -4   15.23    1.39
  14   8  -4   15.25    2.09
 -14   8   4   14.86    1.31
 -12  -8   4   75.03    3.95
  12  -8  -4   74.05    2.69
  12  -8  -4   80.18    2.93
  12   8  -4   80.17    3.89
  10  -8  -4   53.98    2.35
 -10  -8   4   55.55    3.22
  10  -8  -4   51.77    2.13
  10   8  -4   53.49    3.22
   8  -8  -4    0.99    0.62
   8  -8  -4    0.51    0.62
  -8  -8   4   -0.29    1.01
   8   8  -4    0.59    1.12
  -6  -8   4   86.79    3.99
   6  -8  -4   92.17    3.10
   6   8  -4   88.92    4.09
   4  -8  -4    1.94    0.71
  -4  -8   4    5.30    1.33
  -2  -8   4  139.31    5.00
   2  -8  -4  125.89    4.24
   0  -8  -4   11.09    1.37
   0  -8   4   11.37    1.69
   2  -8   4   87.82    3.88
   2   8   4   89.94    3.62
   4  -8   4  131.39    4.96
   4   8   4  128.77    4.64
   4   8   4  134.51    5.10
   6  -8   4   10.54    1.65
   6   8   4   13.29    1.90
   6   8   4   11.61    1.56
   8  -8   4   28.18    2.52
   8   8   4   22.05    2.47
   8   8   4   27.46    2.27
  10  -8   4   30.87    2.76
  10   8   4   34.43    3.11
  10   8   4   32.53    2.60
  12  -8   4   27.91    2.66
  12   8   4   27.20    2.93
  12   8   4   26.43    2.45
  14  -8   4    0.68    1.23
  14   8   4   -0.47    1.28
  14   8   4   -0.97    1.05
  16  -8   4   28.12    2.82
  16  -8   4   30.55    2.94
  16   8   4   30.57    3.38
  16   8   4   33.77    2.96
  18  -8   4    2.18    1.55
  18   8   4    3.15    1.87
  18   8   4    4.48    1.65
  20  -8   4    5.69    1.86
  20   8   4   11.57    2.53
  20   8   4    4.91    1.83
  22  -8   4   -2.66    1.38
  22   8   4    2.83    1.73
  22   8   4    0.10    1.86
  29   9  -4    2.84    2.11
  27   9  -4    2.34    1.94
  25   9  -4    9.96    2.25
  23   9  -4   -0.94    1.42
  21   9  -4    4.84    1.82
  19   9  -4    0.56    1.34
  17   9  -4    1.18    1.43
 -15  -9   4    1.46    1.46
  15  -9  -4   -0.72    0.70
  15   9  -4    0.32    1.33
 -13  -9   4    3.41    1.55
  13  -9  -4    2.85    0.84
  13   9  -4    2.57    1.51
 -11  -9   4    1.87    1.40
  11  -9  -4    2.03    0.75
  11   9  -4    0.38    1.30
  -9  -9   4    8.79    1.73
   9  -9  -4   10.28    1.17
   9   9  -4   10.04    1.82
  -7  -9   4    0.15    1.09
   7  -9  -4    0.76    0.73
   7   9  -4    1.38    1.26
   5  -9  -4    8.88    1.17
  -5  -9   4    9.16    1.67
   3  -9  -4    1.14    0.80
  -3  -9   4    1.50    1.21
  -1  -9   4    2.64    1.34
   1  -9  -4    1.63    0.89
  -1  -9  -4   10.45    1.47
   1  -9   4    9.03    1.65
   3  -9   4    1.26    1.12
   3   9   4    0.41    0.97
   5  -9   4    2.92    1.28
   5   9   4    4.79    1.31
   7  -9   4    0.07    1.02
   7   9   4    0.33    1.25
   7   9   4   -0.08    1.07
   9  -9   4    0.10    1.16
   9   9   4   -1.00    1.18
   9   9   4    0.62    1.12
  11  -9   4   11.68    1.92
  11   9   4   11.51    1.86
  11   9   4    6.04    2.00
  13  -9   4    2.42    1.35
  13   9   4    2.15    1.40
  13   9   4    3.52    1.90
  15  -9   4    8.87    1.97
  15   9   4   11.34    2.46
  15   9   4   10.69    1.96
  17  -9   4    1.57    1.57
  17  -9   4    1.00    1.43
  17   9   4    5.58    2.01
  17   9   4    0.82    1.49
  19  -9   4   -3.57    1.27
  19   9   4   -0.39    1.62
  19   9   4    1.10    1.58
  21  -9   4    0.84    1.71
  21   9   4    4.00    2.22
  21   9   4    2.17    1.82
  26  10  -4   16.87    2.86
  24  10  -4   33.36    3.67
  22  10  -4    4.52    2.09
  20  10  -4   40.96    3.78
 -18 -10   4   42.40    3.84
  18  10  -4   35.48    3.45
 -16 -10   4   19.34    2.76
  16  10  -4   19.48    2.64
 -14 -10   4   11.78    2.20
  14  10  -4   12.70    2.30
 -12 -10   4   84.69    4.51
  12  10  -4   74.95    4.27
 -10 -10   4   73.22    4.00
  10 -10  -4   70.90    2.87
  10  10  -4   66.48    4.00
   8 -10  -4   -0.15    0.78
  -8 -10   4   -0.53    1.17
   8  10  -4   -2.88    1.10
  -6 -10   4   51.47    3.30
   6 -10  -4   45.36    2.35
   4 -10  -4    0.16    0.78
  -4 -10   4    3.27    1.37
   2 -10  -4  101.73    3.96
  -2 -10   4  105.34    4.63
   0 -10   4    8.77    1.76
   0 -10  -4    5.75    1.32
  -2 -10  -4   62.44    3.21
   2 -10   4   65.81    3.61
   4 -10   4    6.96    1.64
  -4 -10  -4    9.30    1.67
   4  10   4    7.77    1.56
   6 -10   4    1.20    1.25
   6  10   4   -1.40    1.08
   8 -10   4   22.60    2.50
   8  10   4   20.46    2.30
  10 -10   4   10.92    1.95
  10  10   4   10.25    1.92
  12 -10   4   40.58    3.38
  12  10   4   41.65    3.77
  12  10   4   42.23    3.31
  14 -10   4    4.94    1.75
  14  10   4    2.98    1.63
  14  10   4    6.89    2.08
  16 -10   4   18.30    2.56
  16  10   4   17.38    2.94
  16  10   4   15.93    2.48
  18 -10   4   -1.78    1.63
  18  10   4    2.02    1.75
  18  10   4    3.72    2.23
 -23 -11   4   -0.16    1.97
  23  11  -4    0.63    1.86
 -21 -11   4    1.55    2.07
  21  11  -4    3.96    2.08
 -19 -11   4    1.83    1.93
  19  11  -4   -2.05    1.61
 -17 -11   4   19.13    2.86
  17  11  -4   16.10    2.66
 -15 -11   4    2.85    1.85
  15  11  -4    0.61    1.64
 -13 -11   4    2.28    1.58
  13  11  -4    1.41    1.69
 -11 -11   4   -0.46    1.34
  11  11  -4   -1.13    1.47
  -9 -11   4    3.30    1.60
   9  11  -4   -0.86    1.40
  -7 -11   4   -0.45    1.24
  -5 -11   4   12.78    2.18
   3 -11  -4   23.72    2.13
  -3 -11   4   20.31    2.48
  -1 -11   4    2.31    1.51
   1 -11  -4    1.48    1.07
  -1 -11  -4    6.15    1.47
   1 -11   4    7.95    1.78
  -3 -11  -4    1.26    1.18
   3 -11   4    2.25    1.37
  -5 -11  -4    6.55    1.67
   5 -11   4    5.46    1.64
   5  11   4    5.09    1.50
   7 -11   4    2.31    1.46
  -7 -11  -4    1.06    1.36
   7  11   4    3.52    1.52
   9 -11   4   24.61    2.77
   9  11   4   18.39    2.42
  11 -11   4    4.02    1.62
  11  11   4    3.84    1.78
  13  11   4    0.60    1.60
  15  11   4    7.52    2.38
 -18 -12   4    7.79    2.40
  18  12  -4   10.25    2.54
 -16 -12   4   24.33    3.25
  16  12  -4   25.96    3.28
 -14 -12   4   17.32    2.77
  14  12  -4   16.36    2.79
 -12 -12   4   13.55    2.50
  12  12  -4   13.57    2.46
 -10 -12   4   55.41    3.96
  -8 -12   4    1.48    1.57
  -6 -12   4   61.97    4.04
  -4 -12   4    2.51    1.53
  -2 -12   4   32.56    3.18
   0 -12   4    0.51    1.40
   2 -12   4   40.25    3.49
  -4 -12  -4   19.69    2.65
   4 -12   4   18.20    2.48
  -6 -12  -4   19.20    2.49
   6 -12   4   18.74    2.54
  -8 -12  -4   16.74    2.56
   8  12   4   17.31    2.40
 -10 -12  -4   18.88    2.81
  10  12   4   24.38    4.41
 -11 -13   4    0.41    1.66
  -9 -13   4    7.73    2.16
  -7 -13   4    4.26    1.77
  -5 -13   4   24.46    2.99
  -3 -13   4   15.83    2.66
  -1 -13   4    7.12    2.24
  38   0  -5    0.96    1.54
  38   0  -5   -1.32    1.59
  36   0  -5   -0.45    1.35
  36   0  -5   -1.24    1.75
  34   0  -5   -0.28    1.69
  34   0  -5    0.72    1.24
  32   0  -5   -0.84    1.44
  32   0  -5   -0.87    0.95
  30   0  -5    0.85    1.08
  30   0  -5   -0.81    1.19
  28   0  -5    1.84    1.27
  28   0  -5   -0.17    0.90
  26   0  -5   -0.06    1.03
  26   0  -5    0.13    0.82
  24   0  -5   -0.22    0.97
  24   0  -5   -0.04    0.80
  22   0  -5   -1.03    0.92
  22   0  -5   -0.50    0.63
  20   0  -5    0.56    0.79
 -20   0   5   -1.01    0.61
  20   0  -5    0.47    0.65
  18   0  -5    0.01    0.58
 -18   0   5   -1.02    0.57
  18   0  -5    1.66    0.84
 -16   0   5    0.81    0.60
  16   0  -5   -0.21    0.54
  16   0  -5   -0.42    0.75
 -14   0   5    0.45    0.53
  14   0  -5    0.77    0.56
  14   0  -5   -1.02    0.61
 -12   0   5    0.15    0.47
  12   0  -5    0.76    0.46
  12   0  -5   -0.46    0.60
  10   0  -5   -0.17    0.54
 -10   0   5   -0.38    0.41
  -8   0   5   -0.69    0.49
   8   0  -5    0.39    0.47
  -8   0   5   -0.39    0.41
  -6   0   5   -0.02    0.35
   6   0  -5    0.13    0.40
  -6   0   5    0.30    0.45
   6   0  -5   -0.27    0.33
   4   0  -5    0.67    0.44
   4   0  -5    0.20    0.33
  -4   0   5    0.28    0.32
  -4   0   5   -0.08    0.47
  -2   0   5   -0.87    0.53
   2   0  -5    0.06    0.53
   0   0   5    0.30    0.67
   0   0  -5   -0.09    0.61
   0   0   5   -0.95    0.61
   2   0   5    0.11    0.66
  -2   0  -5    0.31    0.64
   2   0   5   -0.28    0.70
   4   0   5   -1.17    0.68
   4   0   5   -0.19    0.77
  -4   0  -5    0.25    0.65
  -6   0  -5    0.67    0.71
   6   0   5    0.07    0.78
   8   0   5   -0.11    0.83
  10   0   5   -0.99    0.76
  12   0   5    0.63    0.94
  14   0   5    0.66    0.92
  16   0   5   -0.26    0.96
  18   0   5   -0.27    1.09
  20   0   5    2.09    1.34
  22   0   5   -0.69    1.39
  24   0   5   -0.01    1.46
  26   0   5   -0.07    1.42
  28   0   5    1.80    2.09
  28   0   5    1.36    1.81
  37  -1  -5    1.39    2.03
  37  -1  -5   -0.77    1.26
  37   1  -5    0.88    2.03
  37   1  -5    0.35    1.54
  35  -1  -5   13.99    2.53
  35  -1  -5   16.28    2.30
  35   1  -5   16.12    2.79
  35   1  -5   17.09    2.41
  33  -1  -5    1.37    1.54
  33  -1  -5    0.57    1.18
  33   1  -5   -0.31    1.66
  33   1  -5   -2.32    1.05
  31  -1  -5  107.95    5.28
  31  -1  -5  106.38    4.50
  31   1  -5  107.34    5.32
  31   1  -5  103.85    4.75
  29  -1  -5    0.15    0.95
  29   1  -5    0.96    1.40
  29   1  -5   -1.30    1.00
  27  -1  -5   32.44    2.29
  27   1  -5   35.59    2.51
  27   1  -5   27.62    2.73
  25  -1  -5    4.15    1.06
  25   1  -5    2.95    1.09
  25   1  -5    3.48    1.42
  23  -1  -5    2.86    0.87
  23   1  -5    1.42    1.09
  23   1  -5    1.88    0.91
  21  -1  -5    9.41    1.17
  21   1  -5    6.83    1.32
  21   1  -5    9.35    1.33
 -21   1   5    8.21    1.12
  19  -1  -5  153.56    4.56
 -19  -1   5  154.93    4.83
  19   1  -5  151.20    4.82
 -19   1   5  153.49    4.55
  19   1  -5  161.63    5.23
 -17  -1   5  351.54    9.01
  17  -1  -5  349.97    8.68
  17   1  -5  329.72    9.26
  17   1  -5  345.86    9.02
 -17   1   5  356.10    8.69
 -15  -1   5   69.72    2.55
  15  -1  -5   67.70    2.26
 -15   1   5   67.55    2.25
  15   1  -5   72.16    2.60
  15   1  -5   65.76    2.79
 -13  -1   5  138.25    4.17
 -13  -1   5  140.06    3.97
  13  -1  -5  132.00    3.57
 -13   1   5  138.44    3.60
  13   1  -5  133.82    4.16
  13   1  -5  135.29    3.97
  11  -1  -5  164.57    4.08
 -11  -1   5  171.25    4.51
 -11  -1   5  170.15    4.68
  11   1  -5  159.50    4.49
  11   1  -5  170.56    4.73
 -11   1   5  164.04    4.09
  -9  -1   5  158.70    4.29
  -9  -1   5  161.33    4.39
  -9   1   5  164.12    3.83
   9   1  -5  160.36    4.42
   7  -1  -5  154.92    3.96
  -7  -1   5  158.87    4.24
  -7  -1   5  163.03    4.39
   7   1  -5  161.23    4.34
   7   1  -5  159.08    4.25
  -7   1   5  160.83    3.92
   5  -1  -5  981.59   22.13
   5  -1  -5 1000.00   22.25
  -5  -1   5  977.27   22.44
  -5  -1   5  985.95   22.64
   5   1  -5  986.54   22.47
   5   1  -5  950.91   22.59
  -5   1   5  994.69   22.26
  -5   1   5  977.48   22.23
   3  -1  -5  362.64    8.32
  -3  -1   5  350.92    8.37
  -3  -1   5  361.33    8.62
   3   1  -5  354.48    8.57
   3   1  -5  340.09    8.35
  -3   1   5  311.83    7.84
  -3   1   5  351.09    8.33
  -3   1   5  356.39    8.35
  -1  -1   5  193.79    5.14
   1  -1  -5  187.02    4.89
   1  -1  -5  180.40    4.88
   1   1  -5  183.31    5.05
  -1   1   5  181.94    4.91
  -1   1   5  186.86    4.92
  -1  -1  -5   25.53    1.49
  -1  -1  -5   25.06    1.46
   1  -1   5   24.15    1.60
  -1   1  -5   27.77    1.52
   1   1   5   29.68    1.60
  -3  -1  -5   11.11    1.16
  -3  -1  -5   15.47    1.40
   3  -1   5   15.32    1.50
   3  -1   5   13.83    1.36
  -3   1  -5   13.44    1.34
   3   1   5   11.64    1.21
   5  -1   5  259.27    7.13
  -5  -1  -5  254.60    7.12
   5  -1   5  244.47    7.17
  -5  -1  -5  275.95    7.10
   5   1   5  258.14    7.11
  -5   1  -5  252.43    7.13
   7  -1   5   10.75    1.57
   7  -1   5   13.12    1.58
   7   1   5   13.14    1.46
   9  -1   5  302.12    8.50
   9   1   5  304.82    8.55
  11  -1   5    0.31    0.85
  11   1   5    0.79    0.87
  13  -1   5   75.57    3.48
  13   1   5   71.17    3.44
  15  -1   5   -0.67    0.90
  15   1   5    1.28    1.06
  17  -1   5   94.61    4.25
  17   1   5   89.16    4.33
  19  -1   5  110.61    4.94
  19   1   5  105.58    5.00
  21  -1   5   14.53    2.25
  21   1   5   19.34    2.57
  23  -1   5   61.45    3.99
  23   1   5   50.87    4.18
  23   1   5   51.07    4.11
  25  -1   5   15.27    2.44
  25   1   5   13.20    2.54
  25   1   5   13.63    2.46
  27  -1   5   19.24    2.80
  27   1   5   14.82    2.84
  27   1   5   24.06    3.38
  38  -2  -5   -2.40    1.20
  38  -2  -5   -1.35    1.70
  38   2  -5    2.99    1.92
  38   2  -5   -1.04    1.53
  36  -2  -5    0.21    1.19
  36  -2  -5    0.96    1.96
  36   2  -5   -0.88    1.59
  36   2  -5   -0.28    1.48
  34  -2  -5    4.06    1.41
  34   2  -5    6.39    2.22
  34   2  -5    5.23    1.67
  32  -2  -5    3.84    1.42
  32   2  -5    2.25    1.71
  32   2  -5    6.35    1.75
  30  -2  -5    8.12    1.54
  30   2  -5    9.87    1.90
  30   2  -5    9.01    2.01
  28  -2  -5   15.02    1.73
  28   2  -5   12.20    2.07
  28   2  -5   12.10    1.81
  26  -2  -5    1.81    0.84
  26   2  -5    1.08    1.25
  26   2  -5   -0.43    0.87
  24  -2  -5   24.82    1.74
  24   2  -5   21.04    2.04
  24   2  -5   24.12    2.34
  22  -2  -5    5.92    0.98
  22   2  -5    7.82    1.50
 -22   2   5    7.41    1.16
  22   2  -5    7.81    1.40
  20  -2  -5    0.42    0.58
  20   2  -5    0.57    0.90
 -20   2   5    0.67    0.63
  20   2  -5    0.40    0.84
  18  -2  -5    6.15    0.81
  18   2  -5    6.42    1.15
  18   2  -5    7.20    1.28
 -18   2   5    7.53    0.94
  16  -2  -5    9.41    0.84
 -16  -2   5   13.21    1.31
 -16   2   5   11.29    0.96
  16   2  -5    6.87    1.15
  16   2  -5    8.29    1.13
  14  -2  -5   59.85    1.86
 -14  -2   5   60.90    2.43
 -14  -2   5   59.49    2.50
  14   2  -5   61.97    2.60
  14   2  -5   62.90    2.55
 -14   2   5   61.45    1.88
 -12  -2   5   20.34    1.54
  12  -2  -5   16.55    0.71
 -12  -2   5   18.51    1.32
  12   2  -5   17.29    1.29
  12   2  -5   12.43    1.22
 -10  -2   5   43.30    1.88
 -10  -2   5   42.39    1.83
  10   2  -5   42.24    1.98
  -8  -2   5  128.93    3.98
  -8  -2   5  137.14    3.88
   8   2  -5  131.69    3.88
  -6  -2   5  437.46   10.37
   6  -2  -5  423.82    9.67
   6  -2  -5  422.52    9.78
  -6  -2   5  425.67   10.50
   6   2  -5  413.35   10.35
  -6   2   5  424.12    9.79
   6   2  -5  441.55   10.52
  -4  -2   5   16.58    1.21
  -4  -2   5   17.01    1.33
   4  -2  -5   17.47    0.58
   4  -2  -5   16.46    0.80
   4  -2  -5   16.39    0.82
   4   2  -5   18.56    1.28
  -4   2   5   16.29    0.92
  -2  -2   5  160.53    4.75
   2  -2  -5  164.18    4.41
  -2  -2   5  170.61    4.60
   2  -2  -5  171.48    4.38
  -2   2   5  169.45    3.93
  -2   2   5  167.80    4.45
   2   2  -5  165.01    4.71
   0  -2   5  105.70    3.54
   0  -2  -5  107.77    3.27
   0  -2  -5  108.79    3.28
   0   2  -5  112.73    3.52
   0   2   5  107.11    3.34
   0   2   5  107.67    2.84
  -2  -2  -5   22.53    1.42
  -2  -2  -5   25.54    1.47
   2  -2   5   22.68    1.81
   2   2   5   21.51    1.46
  -2   2  -5   21.83    1.57
   2   2   5   22.72    1.16
  -4  -2  -5    0.36    0.60
  -4  -2  -5    3.31    0.83
   4  -2   5    0.31    0.83
  -4   2  -5    0.69    0.75
   4   2   5    1.64    0.61
   4   2   5    0.38    0.72
  -6  -2  -5   55.42    2.68
   6  -2   5   65.84    3.01
   6  -2   5   60.71    2.82
   6   2   5   61.47    2.75
  -6   2  -5   65.74    2.97
   6   2   5   64.53    2.45
   8  -2   5    1.73    1.01
   8  -2   5    0.59    0.99
   8   2   5   -0.19    0.76
  10  -2   5    8.69    1.46
  10  -2   5    9.97    1.41
  10   2   5    7.13    1.30
  12  -2   5    1.80    1.06
  12   2   5    1.61    1.01
  14  -2   5    7.56    1.45
  14   2   5    9.24    1.51
  14   2   5    6.85    1.56
  16  -2   5   -1.36    0.96
  16   2   5   -1.49    0.90
  16   2   5    1.41    1.14
  18  -2   5   27.89    2.66
  18   2   5   26.46    2.70
  18   2   5   31.27    2.84
  20  -2   5    1.71    1.35
  20   2   5   -0.79    1.25
  20   2   5   -0.27    1.14
  22  -2   5    1.06    1.38
  22   2   5   -0.04    1.47
  22   2   5   -1.15    1.35
  24  -2   5   17.57    2.60
  24   2   5   12.80    2.45
  24   2   5   13.74    2.39
  26  -2   5    0.90    1.55
  26   2   5   -0.10    1.61
  26   2   5   -2.09    1.38
  28  -2   5    2.21    2.01
  28   2   5    3.57    2.09
  28   2   5    5.22    2.18
  37   3  -5   12.01    2.35
  37   3  -5    6.77    2.44
  35  -3  -5   30.98    2.84
  35   3  -5   32.22    3.41
  35   3  -5   33.39    3.80
  33  -3  -5   19.71    2.21
  33   3  -5   21.74    2.77
  33   3  -5   22.76    3.12
  31  -3  -5   68.10    3.31
  31   3  -5   59.29    3.85
  31   3  -5   57.98    3.97
  29  -3  -5   13.15    1.65
  29   3  -5   11.50    2.05
  29   3  -5    9.02    1.74
  27  -3  -5   87.68    3.59
  27   3  -5  101.60    4.49
  27   3  -5   92.38    4.63
  25  -3  -5   56.50    2.63
  25   3  -5   69.08    3.71
  25   3  -5   58.84    3.24
  23  -3  -5  132.30    4.25
  23   3  -5  140.28    5.27
  23   3  -5  129.64    4.99
  21  -3  -5   80.56    2.84
 -21   3   5   80.14    3.20
  21   3  -5   76.12    3.60
  21   3  -5   79.60    3.59
  19  -3  -5   89.10    2.89
  19   3  -5   91.52    3.80
  19   3  -5   92.23    3.66
 -19   3   5   89.12    3.22
  17  -3  -5  200.33    5.22
 -17   3   5  201.47    5.55
  17   3  -5  211.49    6.22
  17   3  -5  194.42    6.16
  15  -3  -5    4.74    0.55
 -15   3   5    4.60    0.70
  15   3  -5    3.32    1.01
  15   3  -5    3.08    1.02
  13  -3  -5  283.87    6.77
 -13  -3   5  291.30    7.80
 -13  -3   5  286.30    7.73
 -13   3   5  288.73    7.04
  13   3  -5  294.49    7.84
  13   3  -5  288.07    7.87
  11  -3  -5   -0.42    0.19
 -11  -3   5    0.07    0.65
 -11  -3   5   -0.46    0.59
  11   3  -5   -0.83    0.65
 -11   3   5    0.42    0.33
  -9  -3   5  363.97    9.19
  -9  -3   5  364.95    9.37
  -9  -3   5  359.56    9.17
   9  -3  -5  356.14    8.20
   9   3  -5  358.73    9.24
  -7  -3   5    2.70    0.88
   7  -3  -5    2.11    0.38
  -7  -3   5    2.74    0.77
   7   3  -5    3.40    0.83
  -5  -3   5  367.69    9.53
   5  -3  -5  369.37    8.84
  -5  -3   5  366.90    9.35
   5  -3  -5  376.13    8.76
   5   3  -5  373.84    9.44
  -5   3   5  376.90    8.87
   5   3  -5  384.86    9.50
   3  -3  -5   51.50    1.53
  -3  -3   5   47.97    2.28
   3  -3  -5   51.83    1.79
  -3  -3   5   52.51    2.18
   3   3  -5   50.25    2.19
  -3   3   5   49.97    1.88
   3   3  -5   52.23    2.19
  -1  -3   5   50.04    2.20
   1  -3  -5   53.24    1.98
  -1  -3   5   50.45    2.35
   1  -3  -5   50.53    1.56
  -1   3   5   50.96    1.62
   1   3  -5   52.39    2.27
  -1   3   5   52.42    2.06
   1  -3   5  108.56    3.79
  -1  -3  -5  116.76    3.57
   1   3   5  114.86    3.61
  -1   3  -5  105.61    3.65
   1   3   5  109.34    3.08
  -3  -3  -5  101.23    3.46
   3  -3   5   95.72    3.63
  -3   3  -5  104.37    3.63
   3   3   5  106.15    3.62
   3   3   5  102.57    3.07
   5  -3   5  194.40    5.95
   5   3   5  189.28    5.26
  -5   3  -5  189.68    5.76
   5   3   5  189.53    5.77
   7  -3   5   45.55    2.61
   7   3   5   50.71    2.63
   7   3   5   48.05    2.19
   9  -3   5   61.52    3.08
   9  -3   5   58.68    2.83
   9   3   5   51.49    2.80
   9   3   5   58.50    2.61
  11  -3   5    3.74    1.28
  11  -3   5    4.14    1.17
  11   3   5    3.74    1.02
  11   3   5    3.71    1.30
  13  -3   5   42.82    2.75
  13   3   5   41.08    2.73
  13   3   5   42.38    2.55
  15  -3   5   -0.49    0.92
  15   3   5    2.93    1.26
  15   3   5    0.67    1.01
  17  -3   5   94.88    4.30
  17   3   5   83.81    4.32
  17   3   5   92.82    4.21
  19  -3   5   12.28    2.11
  19   3   5   13.92    2.09
  19   3   5   15.27    2.38
  21  -3   5   30.00    3.07
  21   3   5   25.15    2.93
  21   3   5   26.91    2.79
  23  -3   5   25.61    2.85
  23   3   5   21.95    2.84
  23   3   5   21.25    2.84
  25  -3   5   22.85    2.94
  25   3   5   20.25    2.95
  25   3   5   15.76    2.70
  27  -3   5   26.55    3.32
  27   3   5   31.25    3.53
  27   3   5   31.69    3.65
  36   4  -5   -0.81    1.83
  36   4  -5    1.24    1.77
  34   4  -5    4.77    2.08
  34   4  -5    5.97    1.91
  32  -4  -5    8.31    1.61
  32   4  -5   13.51    2.49
  32   4  -5    9.86    2.04
  30  -4  -5    0.24    0.90
  30   4  -5   -0.98    1.38
  30   4  -5    0.10    1.31
  28  -4  -5    0.36    0.84
  28   4  -5    0.04    1.35
  28   4  -5    2.27    1.26
  26  -4  -5   57.23    2.62
  26   4  -5   51.71    3.35
  26   4  -5   51.33    3.49
  24  -4  -5    0.74    0.68
  24   4  -5    0.32    1.09
  24   4  -5    1.74    1.25
  22  -4  -5    3.93    0.82
  22   4  -5    1.59    1.11
  22   4  -5    3.07    1.26
  20  -4  -5   -0.84    0.43
  20   4  -5    0.03    0.87
  20   4  -5    0.34    0.99
 -20   4   5   -0.60    0.61
  18  -4  -5   18.11    1.13
 -18   4   5   19.75    1.39
  18   4  -5   15.92    1.75
  18   4  -5   19.66    1.93
  16  -4  -5   10.16    0.82
 -16   4   5   10.72    1.03
  16   4  -5   10.01    1.39
  16   4  -5    9.00    1.40
  14  -4  -5   20.09    0.95
  14   4  -5   22.16    1.92
 -14   4   5   20.62    1.14
  12   4  -5    8.97    1.27
 -12   4   5   10.87    0.72
  10  -4  -5   71.23    1.95
 -10  -4   5   67.16    2.99
 -10  -4   5   67.44    2.80
 -10  -4   5   70.08    2.79
  10   4  -5   70.44    2.94
   8  -4  -5  114.61    3.02
  -8  -4   5  115.92    3.78
  -8  -4   5  113.73    3.96
   8   4  -5  110.53    3.87
  -6  -4   5   78.49    3.13
   6  -4  -5   80.65    2.16
   6  -4  -5   78.29    2.37
  -6  -4   5   75.71    2.96
   6  -4  -5   83.79    2.52
   6   4  -5   85.01    3.11
   4  -4  -5    0.18    0.40
  -4  -4   5    0.19    0.75
   4  -4  -5    0.07    0.37
  -4  -4   5   -0.22    0.60
   4   4  -5    0.48    0.77
  -4   4   5    0.11    0.53
   4   4  -5   -0.12    0.65
   2  -4  -5   31.52    1.31
  -2  -4   5   32.01    1.83
   2  -4  -5   34.36    1.57
  -2  -4   5   35.85    2.10
   2   4  -5   33.95    1.93
  -2   4   5   33.48    1.40
  -2   4   5   32.34    1.69
   0  -4  -5    4.87    0.59
   0  -4  -5    5.72    0.90
   0  -4   5    5.34    1.13
   0  -4   5    5.83    1.07
   0   4   5    5.37    0.68
   0   4   5    4.52    0.90
   0   4  -5    6.95    1.11
  -2  -4  -5   16.84    1.46
   2  -4   5   14.27    1.79
  -2  -4  -5   16.08    1.06
   2   4   5   16.42    1.15
  -2   4  -5   17.70    1.66
   2   4   5   16.48    1.55
   4  -4   5   16.52    1.64
   4   4   5   16.84    1.26
   4   4   5   16.56    1.57
   6  -4   5    7.31    1.29
   6   4   5   10.16    1.09
   6   4   5    8.28    1.39
   8  -4   5    0.39    0.90
   8   4   5    0.20    0.87
   8   4   5   -0.06    0.69
  10  -4   5   49.31    2.87
  10  -4   5   42.69    2.60
  10   4   5   47.97    2.47
  10   4   5   47.53    2.79
  12  -4   5   10.82    1.63
  12  -4   5    9.43    1.59
  12   4   5    8.24    1.62
  12   4   5   12.07    1.53
  14  -4   5   32.28    2.67
  14   4   5   34.99    2.96
  14   4   5   38.77    2.61
  16  -4   5    1.95    1.25
  16   4   5    0.13    1.20
  16   4   5    3.39    1.26
  18  -4   5    0.17    1.24
  18   4   5    1.49    1.21
  18   4   5   -2.87    0.93
  20  -4   5    3.04    1.50
  20   4   5    2.11    1.44
  20   4   5    2.54    1.59
  22  -4   5    0.23    1.51
  22   4   5   -1.58    1.32
  22   4   5    0.34    1.46
  24  -4   5   21.25    2.82
  24   4   5   19.43    2.88
  24   4   5   19.67    2.80
  26  -4   5   -0.63    1.57
  26   4   5   -0.12    1.67
  26   4   5   -0.22    1.56
  35   5  -5   34.59    3.79
  35   5  -5   46.39    4.40
  33   5  -5    1.24    1.76
  33   5  -5   -1.31    1.43
  31  -5  -5    6.64    1.54
  31   5  -5    6.67    2.02
  31   5  -5    6.66    1.90
  29  -5  -5    1.27    0.91
  29   5  -5    0.68    1.50
  29   5  -5   -0.07    1.29
  27  -5  -5   55.72    2.63
  27   5  -5   52.51    3.51
  27   5  -5   50.62    3.68
  25  -5  -5   23.71    1.70
  25   5  -5   25.70    2.74
  25   5  -5   20.98    2.48
  23  -5  -5   57.17    2.40
  23   5  -5   53.18    3.41
  23   5  -5   64.39    3.50
  21  -5  -5    1.93    0.68
  21   5  -5    2.64    1.21
  21   5  -5    2.17    1.24
 -21   5   5    2.19    0.89
  19  -5  -5   17.52    1.20
  19   5  -5   18.47    2.00
 -19   5   5   19.97    1.56
  19   5  -5   16.29    1.93
  17  -5  -5   15.10    1.05
 -17   5   5   17.65    1.36
  17   5  -5   12.28    1.68
  17   5  -5   16.77    1.90
  15  -5  -5    3.08    0.55
  15   5  -5    3.71    1.09
 -15   5   5    3.90    0.64
 -13   5   5  175.21    4.49
  13   5  -5  177.24    5.67
 -11  -5   5    0.40    0.94
  11  -5  -5    0.13    0.34
  11  -5  -5   -0.09    0.31
  11   5  -5    0.42    0.80
  -9  -5   5  265.95    7.56
   9  -5  -5  256.55    6.42
   9  -5  -5  257.36    6.14
   9   5  -5  258.67    7.44
   7  -5  -5   20.94    1.22
   7  -5  -5   15.18    0.91
   7  -5  -5   17.37    1.04
  -7  -5   5   20.32    1.89
   7   5  -5   20.61    1.85
   5  -5  -5  167.73    4.49
   5  -5  -5  171.37    4.71
   5  -5  -5  174.85    4.74
  -5  -5   5  172.97    5.47
   5   5  -5  182.14    5.49
   3  -5  -5    1.57    0.53
   3  -5  -5    1.57    0.51
  -3  -5   5    1.30    0.99
   3   5  -5    0.55    0.82
  -3   5   5    0.81    0.66
   3   5  -5    0.41    0.71
  -1  -5   5  128.12    4.48
   1  -5  -5  128.18    3.74
   1  -5  -5  129.29    4.05
  -1   5   5  131.79    3.83
  -1   5   5  139.97    4.22
   1   5  -5  132.67    4.39
   1  -5   5  232.32    6.88
  -1  -5  -5  242.75    6.56
  -1  -5  -5  231.94    6.08
   1   5   5  229.31    6.13
   1   5   5  227.74    6.60
   3  -5   5  143.83    4.97
  -3  -5  -5  147.16    4.25
   3   5   5  141.42    4.30
   3   5   5  158.31    4.95
   5  -5   5  143.12    4.91
  -5  -5  -5  133.31    4.15
   5   5   5  139.63    4.29
   5   5   5  138.31    4.80
   7  -5   5   40.03    2.54
   7   5   5   40.82    2.13
   7   5   5   38.45    2.48
   9  -5   5  113.66    4.46
   9   5   5  105.70    3.89
   9   5   5  103.37    4.35
  11  -5   5    5.36    1.42
  11   5   5    6.17    1.20
  11   5   5    6.01    1.49
  13  -5   5  146.51    5.43
  13  -5   5  147.13    5.60
  13   5   5  133.71    4.99
  13   5   5  139.75    5.65
  15  -5   5    6.66    1.62
  15  -5   5   10.19    1.76
  15   5   5    7.39    1.75
  15   5   5    4.21    1.33
  17  -5   5   82.81    4.19
  17   5   5   88.41    4.68
  17   5   5   85.62    4.11
  19  -5   5   -1.78    1.20
  19   5   5    0.74    1.34
  19   5   5   -0.07    1.16
  21  -5   5   17.24    2.51
  21   5   5   15.96    2.58
  21   5   5   14.43    2.24
  23  -5   5    6.86    2.03
  23   5   5    5.62    1.97
  23   5   5    4.23    1.81
  25  -5   5    2.12    1.75
  25   5   5    1.60    1.63
  25   5   5    2.63    1.80
  34   6  -5   10.95    2.55
  34   6  -5    7.17    2.41
  32   6  -5    5.00    2.09
  32   6  -5    2.75    1.73
  30   6  -5    1.58    1.53
  30   6  -5    0.53    1.61
  28  -6  -5    4.04    1.20
  28   6  -5    3.70    1.72
  28   6  -5    5.78    1.94
  26  -6  -5    0.32    0.73
  26   6  -5   -0.63    1.32
  26   6  -5   -1.01    1.29
  24  -6  -5   37.88    2.00
  24   6  -5   35.96    3.31
  24   6  -5   41.57    3.46
  22  -6  -5   -0.25    0.66
  22   6  -5    0.96    1.33
 -22   6   5    0.14    0.86
  22   6  -5    1.20    1.29
  20  -6  -5   33.31    1.68
  20   6  -5   30.24    2.71
  20   6  -5   31.56    2.76
 -20   6   5   32.99    1.87
  18  -6  -5   20.14    1.24
 -18   6   5   19.91    1.43
  18   6  -5   18.45    2.06
  16   6  -5   17.28    2.06
 -16   6   5   16.92    1.16
 -14   6   5    1.23    0.52
  14   6  -5    1.97    1.07
  12  -6  -5    6.87    0.75
 -12  -6   5    5.72    1.31
  12  -6  -5    6.66    0.67
  12   6  -5    4.66    1.30
  10  -6  -5   36.24    1.56
  10  -6  -5   39.28    1.95
  10  -6  -5   39.46    1.39
 -10  -6   5   34.01    2.48
  10   6  -5   32.75    2.24
   8  -6  -5    4.41    0.78
   8  -6  -5    3.87    0.69
   8  -6  -5    3.84    0.53
  -8  -6   5    3.44    1.12
   8   6  -5    3.13    1.13
   6  -6  -5   29.20    1.28
  -6  -6   5   29.30    2.14
   6  -6  -5   28.60    1.48
   6  -6  -5   25.96    1.48
   6   6  -5   26.49    2.11
   4  -6  -5   -0.41    0.39
  -4  -6   5    1.02    0.92
   4  -6  -5    0.47    0.41
   4  -6  -5   -0.08    0.42
   4   6  -5    0.55    0.90
  -2  -6   5   11.12    1.58
   2  -6  -5   10.97    1.13
   2  -6  -5    9.37    0.98
  -2   6   5    8.75    1.17
   0  -6  -5   -0.30    0.41
   0  -6   5   -0.93    0.81
   0   6   5    0.10    0.78
   0   6   5    0.67    0.64
   2  -6   5   26.62    2.21
  -2  -6  -5   23.63    1.43
   2   6   5   23.59    1.98
   2   6   5   23.33    1.57
  -4  -6  -5   24.97    1.53
   4  -6   5   25.94    2.24
   4   6   5   26.25    2.25
   4   6   5   24.06    1.69
  -6  -6  -5   -0.64    0.55
   6  -6   5    0.20    0.89
   6   6   5    1.52    1.06
   6   6   5    0.35    0.69
   8  -6   5    9.34    1.59
   8   6   5   12.24    1.43
   8   6   5   12.26    1.82
  10  -6   5   27.72    2.53
  10   6   5   30.15    2.68
  10   6   5   29.21    2.16
  12  -6   5    2.74    1.35
  12   6   5    0.50    1.30
  12   6   5    0.40    0.92
  14  -6   5    1.14    1.29
  14  -6   5    1.42    1.30
  14   6   5   -1.30    0.89
  14   6   5    1.14    1.24
  16  -6   5    3.56    1.51
  16  -6   5    2.20    1.41
  16   6   5    2.97    1.48
  16   6   5    5.42    1.48
  18  -6   5   -0.92    1.30
  18   6   5    2.21    1.45
  18   6   5    0.89    1.44
  20  -6   5    1.01    1.54
  20   6   5    1.63    1.61
  20   6   5    2.15    1.53
  22  -6   5   26.24    3.06
  22   6   5   20.19    2.72
  22   6   5   27.12    3.32
  24  -6   5   -0.19    1.71
  24   6   5    1.77    1.97
  24   6   5    1.55    1.81
  33   7  -5    7.21    2.48
  33   7  -5    5.10    2.19
  31   7  -5   22.29    3.29
  31   7  -5   26.37    3.43
  29   7  -5    0.09    1.30
  29   7  -5   -0.74    1.67
  27   7  -5   25.10    3.08
  27   7  -5   17.32    2.56
  25  -7  -5    4.63    1.56
  25   7  -5    5.45    1.73
  25   7  -5    6.07    1.73
  23  -7  -5   47.48    2.28
  23   7  -5   48.11    3.36
  23   7  -5   51.56    3.62
  21  -7  -5   91.38    3.17
  21   7  -5   92.95    4.56
  19  -7  -5   11.61    1.22
 -19   7   5   14.26    1.36
  19   7  -5   14.66    2.17
 -17   7   5    9.03    1.04
  17   7  -5   10.04    1.74
 -15   7   5   33.82    1.55
  15   7  -5   30.06    2.50
 -13  -7   5  115.33    4.77
  13  -7  -5  117.92    3.52
  13  -7  -5  114.61    3.29
  13   7  -5  108.30    4.54
  11  -7  -5    6.84    0.87
 -11  -7   5    5.50    1.40
  11  -7  -5    7.09    0.77
  11   7  -5    5.04    1.25
  -9  -7   5  193.83    6.42
   9  -7  -5  192.70    5.32
   9  -7  -5  190.23    5.01
   9   7  -5  189.92    6.32
   7  -7  -5   12.43    0.94
   7  -7  -5   12.92    1.21
  -7  -7   5   15.13    1.87
   7   7  -5   15.10    1.85
   5  -7  -5  126.51    4.02
   5  -7  -5  119.41    3.94
   5  -7  -5  126.14    3.72
  -5  -7   5  124.17    4.70
   5   7  -5  126.77    4.76
   3  -7  -5   38.75    1.86
  -3  -7   5   47.60    2.74
   3  -7  -5   40.68    1.97
  -1  -7   5  174.27    5.90
   1  -7  -5  173.97    5.15
  -1   7   5  172.87    5.26
  -1   7   5  185.19    5.62
   1  -7   5  224.16    6.96
  -1  -7  -5  218.01    6.18
   1   7   5  227.06    6.36
   1   7   5  215.61    6.73
   3  -7   5   35.87    2.50
  -3  -7  -5   34.55    1.85
   3   7   5   37.03    2.50
   3   7   5   32.18    2.03
   5  -7   5   99.37    4.14
   5   7   5  101.50    3.73
   5   7   5   94.77    4.18
   7  -7   5    8.55    1.59
   7   7   5    6.60    1.50
   7   7   5    7.48    1.31
   9  -7   5   63.55    3.51
   9   7   5   61.84    3.63
   9   7   5   68.22    3.16
  11  -7   5    1.58    1.26
  11   7   5    2.51    1.11
  11   7   5    2.49    1.38
  13  -7   5   68.74    3.89
  13   7   5   75.24    3.65
  13   7   5   70.93    4.23
  15  -7   5   54.29    3.59
  15  -7   5   56.28    3.57
  15   7   5   56.18    3.96
  15   7   5   52.55    3.30
  17  -7   5   17.61    2.42
  17   7   5   12.80    2.35
  17   7   5   13.44    2.07
  19  -7   5   14.72    2.40
  19   7   5   12.69    2.48
  19   7   5   14.14    2.25
  21  -7   5   46.10    3.83
  21   7   5   49.45    4.43
  21   7   5   43.16    3.68
  23  -7   5    6.18    2.08
  23   7   5   10.88    2.69
  23   7   5    7.14    2.25
  32   8  -5    2.45    1.99
  32   8  -5    2.00    1.95
  30   8  -5   -0.09    1.62
  30   8  -5   -1.00    1.74
  28   8  -5    0.74    1.75
  26   8  -5    0.08    1.47
  24   8  -5   22.67    2.78
  22   8  -5    1.67    1.51
  20  -8  -5   -0.36    0.72
  20   8  -5    0.66    1.40
  18   8  -5    1.19    1.34
 -16  -8   5   -1.31    1.29
  16   8  -5   -0.41    1.30
  14  -8  -5   -0.06    0.57
  14  -8  -5    0.72    0.58
 -14  -8   5   -1.36    1.15
  14   8  -5   -0.40    1.13
 -12  -8   5   42.99    3.05
  12  -8  -5   39.97    1.92
  12  -8  -5   40.29    1.70
  12   8  -5   38.37    3.08
 -10  -8   5   10.37    1.85
  10  -8  -5    7.93    0.91
  10  -8  -5    9.53    1.12
  10   8  -5   10.66    1.80
  -8  -8   5   46.34    2.96
   8  -8  -5   45.58    1.90
   8  -8  -5   44.27    2.12
   8   8  -5   43.80    2.84
   6  -8  -5   -0.33    0.46
  -6  -8   5    1.61    1.13
   6   8  -5   -0.63    1.12
  -4  -8   5   50.50    2.94
   4  -8  -5   43.54    2.03
  -2  -8   5    4.13    1.30
   2  -8  -5    5.04    0.98
   0  -8   5    4.21    1.33
   0   8   5    5.55    1.16
   2  -8   5   18.28    2.12
   2   8   5   17.98    1.98
   2   8   5   19.20    1.81
   4  -8   5    6.03    1.47
   4   8   5    4.88    1.43
   4   8   5    9.28    1.44
   6  -8   5    9.33    1.68
   6   8   5    9.33    1.43
   6   8   5   10.80    1.72
   8  -8   5   -0.09    1.14
   8   8   5    1.80    1.28
   8   8   5    3.38    1.17
  10  -8   5    1.75    1.26
  10   8   5   -0.41    0.98
  10   8   5   -0.79    1.25
  12  -8   5   39.91    3.13
  12   8   5   48.97    3.48
  12   8   5   42.08    2.88
  14  -8   5    7.47    1.83
  14   8   5    4.83    1.96
  14   8   5    4.66    1.54
  16  -8   5    9.11    2.05
  16  -8   5    8.95    1.96
  16   8   5    5.96    2.13
  16   8   5    9.70    1.92
  18  -8   5   -0.64    1.40
  18   8   5    1.24    1.64
  18   8   5    0.17    1.39
  20  -8   5   -1.30    1.51
  20   8   5    0.18    1.61
  20   8   5    0.01    1.51
  22  -8   5    3.90    1.96
  22   8   5    1.70    1.81
  22   8   5    4.51    1.96
  29   9  -5   -0.31    1.78
  27   9  -5   50.31    4.25
  25   9  -5    1.05    1.64
  23   9  -5   19.76    2.91
  21   9  -5   50.60    4.02
  19   9  -5    5.20    1.76
 -17  -9   5   82.85    4.64
  17   9  -5   86.56    4.55
 -15  -9   5   27.08    2.87
  15  -9  -5   28.45    1.68
  15   9  -5   23.48    2.60
  13  -9  -5   79.13    2.74
 -13  -9   5   84.20    4.32
  13   9  -5   79.68    4.24
 -11  -9   5    0.41    1.25
  11  -9  -5    0.89    0.60
  11   9  -5   -1.08    1.22
  -9  -9   5   40.17    3.03
   9  -9  -5   35.89    1.79
   9   9  -5   35.60    3.00
  -7  -9   5   16.36    2.23
   7  -9  -5   18.98    1.50
   7   9  -5   18.93    2.35
   5  -9  -5   25.03    1.62
  -5  -9   5   22.64    2.41
   3  -9  -5    0.27    0.67
  -3  -9   5    0.24    1.13
  -1  -9   5  113.89    4.82
   1  -9  -5  112.70    4.08
  -1  -9  -5    8.39    1.36
   1  -9   5    8.76    1.66
   3  -9   5    5.90    1.55
   3   9   5    8.02    1.43
   5  -9   5    4.50    1.47
   5   9   5    5.50    1.61
   5   9   5    7.10    1.42
   7  -9   5    0.33    1.17
   7   9   5    0.25    1.23
   7   9   5   -1.35    0.99
   9  -9   5   44.74    3.17
   9   9   5   47.61    2.95
   9   9   5   38.08    3.39
  11  -9   5    4.94    1.67
  11   9   5    3.30    1.38
  11   9   5    5.46    1.77
  13  -9   5   90.09    4.60
  13   9   5   88.36    4.30
  13   9   5   89.47    5.09
  15  -9   5    3.05    1.67
  15   9   5    4.86    1.69
  15   9   5    5.06    1.88
  17  -9   5    9.08    2.21
  17  -9   5    9.48    2.09
  17   9   5    8.41    2.31
  17   9   5   11.09    2.17
  19  -9   5    7.46    2.14
  19   9   5    8.69    2.11
  19   9   5    8.58    2.46
  26  10  -5   -1.28    1.74
  24  10  -5    3.67    2.17
 -22 -10   5    2.88    1.84
  22  10  -5   -0.58    1.66
 -20 -10   5   21.37    3.09
  20  10  -5   20.48    2.85
 -18 -10   5    3.23    1.96
  18  10  -5    5.67    1.94
 -16 -10   5   13.22    2.34
  16  10  -5   20.64    2.78
 -14 -10   5   11.36    2.17
  14  10  -5   12.76    2.39
 -12 -10   5    0.32    1.31
  12  10  -5    0.21    1.39
 -10 -10   5   -0.99    1.24
  10  10  -5    1.12    1.41
   8 -10  -5    5.73    1.04
  -8 -10   5    8.19    1.80
   8  10  -5    4.60    1.73
   6 -10  -5    3.20    0.98
  -6 -10   5    3.04    1.42
  -4 -10   5    3.70    1.47
   4 -10  -5    2.98    0.89
  -2 -10   5    5.63    1.56
   2 -10  -5    2.71    1.02
   0 -10  -5   -0.24    0.88
   0 -10   5   -0.58    1.14
   2 -10   5    5.08    1.63
  -2 -10  -5    3.78    1.31
   4 -10   5   -0.10    1.19
   4  10   5   -0.42    1.05
   6 -10   5    2.49    1.45
   6  10   5    1.12    1.25
   8 -10   5    0.94    1.30
   8  10   5    2.53    1.54
   8  10   5   -1.08    1.14
  10 -10   5    0.41    1.40
  10  10   5   -1.76    1.26
  10  10   5    3.64    1.58
  12 -10   5    3.08    1.54
  12  10   5    2.69    1.50
  12  10   5    0.41    1.48
  14 -10   5   -0.90    1.43
  14  10   5    2.21    1.94
  14  10   5    0.93    1.46
  16 -10   5   -0.48    1.70
  16 -10   5    2.42    1.57
  16  10   5    1.39    1.85
  16  10   5    2.92    1.68
 -23 -11   5   24.82    3.56
  23  11  -5   20.07    3.02
 -21 -11   5   32.35    3.84
  21  11  -5   29.11    3.46
 -19 -11   5    3.55    2.03
  19  11  -5    3.14    2.10
 -17 -11   5   13.84    2.61
  17  11  -5   15.85    2.77
 -15 -11   5   56.45    4.51
  15  11  -5   57.29    4.14
 -13 -11   5   51.74    4.23
  13  11  -5   57.84    4.10
 -11 -11   5   23.98    2.87
  11  11  -5   25.21    3.05
  -9 -11   5   64.14    4.02
   9  11  -5   58.27    4.04
  -7 -11   5    0.79    1.48
  -5 -11   5   32.31    3.08
  -3 -11   5    9.32    1.92
   3 -11  -5    6.24    1.40
  -1 -11   5   52.20    3.51
   1 -11  -5   47.39    2.79
  -1 -11  -5   29.84    2.57
   1 -11   5   22.41    2.68
  -3 -11  -5    4.05    1.39
   3 -11   5    5.39    1.77
  -5 -11  -5   21.98    2.53
   5 -11   5   20.15    2.54
   5  11   5   24.36    2.48
   7 -11   5   -1.58    1.33
   7  11   5    1.35    1.37
   9 -11   5   36.37    3.34
   9  11   5   31.03    2.95
  11 -11   5    0.19    1.50
  11  11   5    5.10    1.80
  13 -11   5   39.18    4.55
 -18 -12   5    1.63    1.87
  18  12  -5    1.20    1.91
 -16 -12   5   10.84    2.49
  16  12  -5    8.24    2.40
 -14 -12   5   -1.00    1.61
  14  12  -5    2.87    1.94
 -12 -12   5    5.07    1.96
  12  12  -5    6.45    2.21
 -10 -12   5    3.97    1.77
  -8 -12   5    0.91    1.58
  -6 -12   5   31.35    3.13
  -4 -12   5    0.62    1.51
  -2 -12   5   30.11    3.16
   0 -12   5   -0.54    1.37
   2 -12   5   -0.35    1.40
   4 -12   5    0.42    1.47
   6 -12   5   19.34    2.69
  -6 -12  -5   21.49    3.07
  -8 -12  -5   15.92    2.59
 -11 -13   5    3.57    1.88
  -9 -13   5   42.25    3.89
  -7 -13   5   -0.25    1.54
  -5 -13   5   25.82    3.09
  -3 -13   5    0.44    1.57
  -1 -13   5   14.26    2.54
  38   0  -6   17.19    2.97
  38   0  -6   19.90    2.67
  36   0  -6   -0.28    1.59
  36   0  -6    2.16    1.35
  34   0  -6   50.30    3.34
  34   0  -6   45.92    3.92
  32   0  -6   30.25    3.05
  32   0  -6   32.87    2.76
  30   0  -6  173.80    6.09
  30   0  -6  181.34    6.82
  28   0  -6  161.59    5.59
  28   0  -6  169.29    6.41
  26   0  -6    0.44    0.84
  26   0  -6    1.45    1.21
  24   0  -6   28.66    1.95
  24   0  -6   34.15    2.44
 -22   0   6    0.47    0.80
  22   0  -6   -0.12    0.66
  22   0  -6   -1.44    0.86
 -20   0   6  346.46    8.86
  20   0  -6  342.89    9.40
  20   0  -6  333.10    8.83
  18   0  -6    0.58    0.79
 -18   0   6    0.49    0.64
  18   0  -6    1.88    0.67
  16   0  -6  161.27    4.50
 -16   0   6  163.17    4.50
  16   0  -6  159.06    4.88
  14   0  -6   62.16    2.50
 -14   0   6   64.43    2.15
  14   0  -6   63.37    2.14
 -12   0   6    7.76    0.76
  12   0  -6    9.92    1.00
 -10   0   6  509.46   12.32
 -10   0   6  525.49   12.33
  10   0  -6  527.09   12.35
  -8   0   6   28.31    1.25
   8   0  -6   25.89    1.26
  -8   0   6   26.06    1.37
   8   0  -6   27.88    1.33
  -6   0   6  512.78   12.00
   6   0  -6  520.66   12.01
   6   0  -6  526.15   12.24
  -6   0   6  517.77   12.25
   4   0  -6   11.37    1.01
  -4   0   6   10.08    0.75
  -4   0   6    9.70    0.98
  -2   0   6   92.29    3.01
   2   0  -6   91.01    2.93
   0   0  -6  119.84    3.72
   0   0   6  120.63    3.71
   0   0   6  118.30    3.78
   2   0   6   22.20    1.73
  -2   0  -6   19.88    1.50
   2   0   6   19.94    1.48
   4   0   6   49.96    2.42
   4   0   6   46.45    2.41
  -4   0  -6   50.08    2.36
   6   0   6  324.89    8.88
   8   0   6  264.39    7.70
  10   0   6  195.40    6.32
  12   0   6   10.21    1.64
  14   0   6   85.66    3.96
  16   0   6   10.85    1.84
  18   0   6    6.80    1.74
  20   0   6  143.18    6.03
  22   0   6    9.32    2.07
  24   0   6   44.49    4.01
  26   0   6   34.01    3.80
  39  -1  -6    7.16    1.95
  39  -1  -6    6.46    2.30
  39   1  -6    5.66    1.99
  39   1  -6    0.91    2.03
  37  -1  -6   -0.73    1.26
  37  -1  -6    1.15    1.73
  37   1  -6   -0.94    1.68
  37   1  -6    2.68    1.59
  35  -1  -6    3.04    1.37
  35  -1  -6    2.52    1.90
  35   1  -6    1.87    1.79
  35   1  -6    2.67    1.57
  33  -1  -6    8.37    1.62
  33  -1  -6    6.85    2.05
  33   1  -6    4.63    1.78
  33   1  -6    6.56    1.68
  31  -1  -6    0.40    1.00
  31  -1  -6    0.46    1.50
  31   1  -6    1.14    1.51
  31   1  -6   -0.07    1.09
  29  -1  -6    3.16    1.10
  29   1  -6    3.96    1.60
  29   1  -6    2.60    1.16
  27  -1  -6   13.97    1.56
  27   1  -6    8.41    1.68
  27   1  -6   12.96    1.64
  25  -1  -6   36.53    2.12
  25   1  -6   36.39    2.31
  25   1  -6   32.27    2.69
  23  -1  -6    8.48    1.14
  23   1  -6    6.47    1.43
 -23   1   6   10.98    1.27
  23   1  -6    8.83    1.35
  21  -1  -6   -0.25    0.52
 -21   1   6    0.98    0.66
  21   1  -6   -0.98    0.81
  21   1  -6    0.85    0.77
 -19  -1   6   42.53    2.06
  19  -1  -6   40.37    1.83
 -19   1   6   44.40    1.91
  19   1  -6   40.64    2.34
  19   1  -6   44.85    2.17
  17  -1  -6    1.15    0.50
 -17  -1   6    0.64    0.65
 -17   1   6    0.32    0.54
  17   1  -6    1.29    0.88
  17   1  -6   -0.05    0.64
  15  -1  -6   17.80    1.00
 -15  -1   6   17.73    1.31
  15   1  -6   18.19    1.53
 -15   1   6   19.85    1.05
  15   1  -6   16.14    1.23
 -13  -1   6   21.13    1.31
 -13  -1   6   20.24    1.42
  13  -1  -6   21.49    0.96
 -13   1   6   21.62    0.97
  13   1  -6   21.18    1.44
 -11  -1   6    9.23    0.96
 -11  -1   6   12.94    1.01
  11   1  -6   12.25    1.15
 -11   1   6   10.95    0.65
  -9  -1   6   30.40    1.47
   9  -1  -6   29.92    1.24
  -9  -1   6   28.84    1.60
   9   1  -6   26.65    1.44
  -9   1   6   28.25    1.18
   7  -1  -6   24.09    1.04
   7  -1  -6   22.46    0.91
  -7  -1   6   24.15    1.48
  -7  -1   6   23.13    1.25
   7   1  -6   22.92    1.38
  -7   1   6   24.69    1.09
   7   1  -6   23.29    1.28
   5  -1  -6  131.76    3.09
   5  -1  -6  131.97    3.49
  -5  -1   6  129.00    3.57
   5   1  -6  134.75    3.81
  -5   1   6  126.88    3.50
  -5   1   6  129.28    3.09
  -5   1   6  130.35    3.47
   5   1  -6  130.35    3.60
  -3  -1   6   62.56    2.10
   3  -1  -6   66.64    2.18
   3   1  -6   63.01    2.34
  -3   1   6   64.98    2.22
  -3   1   6   59.88    2.10
   1  -1  -6   20.15    1.30
   1  -1  -6   22.09    1.37
  -1  -1   6   20.93    1.53
  -1   1   6   21.97    1.42
   1   1  -6   21.06    1.47
  -1   1   6   21.21    1.41
   1  -1   6   -0.42    0.73
  -1  -1  -6    1.21    0.67
  -1  -1  -6    0.99    0.65
   1   1   6    1.55    0.81
   1   1   6    0.73    0.68
  -1   1  -6    1.29    0.70
   3  -1   6   30.17    2.03
  -3  -1  -6   33.45    1.80
  -3  -1  -6   32.70    1.88
   3  -1   6   34.35    2.01
  -3   1  -6   30.89    1.91
   3   1   6   33.58    1.88
   5  -1   6   13.73    1.61
  -5  -1  -6   15.51    1.55
   5  -1   6   12.18    1.49
  -5  -1  -6   15.16    1.63
   5   1   6   11.96    1.46
  -5   1  -6   11.88    1.55
   7  -1   6    4.16    1.12
   7  -1   6    5.41    1.29
   7   1   6    4.14    1.11
   9  -1   6    5.51    1.33
   9   1   6    7.94    1.37
  11  -1   6    1.21    1.05
  11   1   6    0.90    1.00
  13  -1   6   -0.57    0.91
  13   1   6   -0.50    0.98
  15  -1   6    0.34    1.16
  15   1   6    1.37    1.17
  17  -1   6    1.78    1.33
  17   1   6   -1.30    1.02
  19  -1   6    6.88    1.85
  19   1   6    5.49    1.78
  21  -1   6    0.29    1.31
  21   1   6    2.92    1.69
  23  -1   6    0.13    1.54
  23   1   6   -1.38    1.40
  23   1   6    0.62    1.51
  25  -1   6   -1.97    1.41
  25   1   6   -0.91    1.29
  25   1   6    1.99    1.78
  27  -1   6   -0.56    1.70
  27   1   6   -0.49    1.63
  27   1   6   -0.71    1.83
  38  -2  -6   18.13    2.38
  38  -2  -6   14.56    2.99
  38   2  -6   17.05    2.64
  38   2  -6   22.88    3.24
  36  -2  -6    1.10    1.72
  36  -2  -6    0.17    1.16
  36   2  -6    0.83    1.79
  36   2  -6   -0.63    1.42
  34  -2  -6   15.72    1.97
  34   2  -6   15.82    2.33
  34   2  -6   13.79    2.40
  32  -2  -6   16.58    1.96
  32   2  -6   13.29    2.30
  32   2  -6   13.93    2.13
  30  -2  -6   46.01    2.67
  30   2  -6   46.16    3.14
  30   2  -6   50.76    3.64
  28  -2  -6   61.16    2.87
  28   2  -6   54.58    3.60
  28   2  -6   57.10    3.27
  26  -2  -6   47.51    2.44
  26   2  -6   55.64    3.02
  26   2  -6   49.16    3.21
  24  -2  -6   29.67    1.78
  24   2  -6   34.87    2.34
  24   2  -6   23.35    2.27
 -24   2   6   29.66    1.82
  22  -2  -6   97.15    3.22
 -22   2   6   90.93    3.20
  22   2  -6   94.65    3.98
  22   2  -6   91.54    3.68
  20  -2  -6  174.39    4.82
  20   2  -6  169.27    5.66
 -20   2   6  172.86    4.84
  20   2  -6  176.89    5.49
  18  -2  -6   37.51    1.52
 -18  -2   6   36.31    2.23
 -18   2   6   37.01    1.59
  18   2  -6   33.61    1.96
  18   2  -6   36.37    2.17
 -16  -2   6  319.07    8.62
  16  -2  -6  292.81    7.26
 -16  -2   6  300.59    7.98
  16   2  -6  295.16    8.06
 -16   2   6  305.07    7.34
  16   2  -6  299.62    8.26
  14  -2  -6    1.49    0.35
 -14  -2   6    2.14    0.79
 -14  -2   6    0.32    0.73
  14   2  -6    0.91    0.78
 -14   2   6    1.86    0.38
 -12  -2   6  147.86    4.24
 -12  -2   6  142.66    4.30
  12   2  -6  138.04    4.30
 -10  -2   6    1.62    0.68
 -10  -2   6    1.37    0.83
 -10   2   6    1.07    0.33
  10   2  -6    0.66    0.72
  -8  -2   6  607.13   14.27
  -8  -2   6  602.33   14.46
  -8   2   6  595.29   13.53
  -8   2   6  589.85   13.52
   8   2  -6  601.39   14.39
   8   2  -6  592.16   14.29
   6  -2  -6   34.58    1.21
   6  -2  -6   34.37    1.18
  -6  -2   6   35.56    1.68
  -6   2   6   34.52    1.25
  -6   2   6   34.69    1.20
   6   2  -6   34.42    1.72
   6   2  -6   36.82    1.78
  -4  -2   6  219.50    5.97
  -4  -2   6  216.67    5.71
   4  -2  -6  221.49    5.47
   4  -2  -6  216.94    5.41
   4   2  -6  218.21    5.89
   4   2  -6  211.63    5.75
  -4   2   6  211.92    5.47
  -2  -2   6  127.82    4.13
  -2  -2   6  127.74    3.85
   2  -2  -6  132.20    3.77
   2  -2  -6  130.87    3.75
  -2   2   6  137.82    3.83
  -2   2   6  135.57    3.18
   2   2  -6  129.37    4.05
   0  -2   6   41.31    2.16
   0  -2  -6   42.99    1.86
   0  -2  -6   43.14    1.92
   0   2   6   41.90    1.45
   0   2  -6   45.10    2.14
   0   2   6   43.98    1.94
   2  -2   6  167.12    5.18
  -2  -2  -6  167.96    4.89
  -2  -2  -6  164.79    4.90
   2   2   6  161.86    4.95
   2   2   6  167.51    4.42
  -2   2  -6  167.09    5.07
  -4  -2  -6   19.45    1.65
  -4  -2  -6   19.02    1.64
   4  -2   6   18.30    1.83
   4   2   6   15.03    1.47
  -4   2  -6   17.13    1.63
   6  -2   6  328.85    9.05
   6  -2   6  313.39    8.80
   6   2   6  322.18    8.85
   8  -2   6   70.49    3.35
   8  -2   6   72.55    3.22
   8   2   6   74.56    3.28
  10  -2   6   75.60    3.48
  10  -2   6   82.84    3.75
  10   2   6   78.49    3.58
  12  -2   6   31.59    2.61
  12   2   6   26.28    2.39
  14  -2   6  109.95    4.69
  14   2   6  103.36    4.67
  14   2   6  109.59    4.38
  16  -2   6   64.08    3.73
  16   2   6   72.09    3.61
  16   2   6   64.51    3.71
  18  -2   6   24.30    2.67
  18   2   6   16.25    2.38
  18   2   6   14.11    2.00
  20  -2   6   96.19    4.76
  20   2   6   92.27    4.84
  20   2   6   84.63    4.49
  22  -2   6   -1.35    1.35
  22   2   6    2.60    1.69
  22   2   6   -0.98    1.40
  24  -2   6   23.23    3.02
  24   2   6   27.86    3.30
  24   2   6   17.69    2.82
  26  -2   6    4.45    2.00
  26   2   6    1.59    1.86
  26   2   6    1.52    1.78
  37   3  -6   -0.98    1.60
  37   3  -6   -0.62    1.59
  35  -3  -6    5.06    1.42
  35   3  -6    1.09    1.64
  35   3  -6    2.00    1.56
  33  -3  -6   -0.09    1.00
  33   3  -6   -0.52    1.32
  33   3  -6    1.89    1.63
  31  -3  -6    3.97    1.20
  31   3  -6    4.06    1.45
  31   3  -6    4.60    1.69
  29  -3  -6    9.04    1.38
  29   3  -6    6.01    1.62
  29   3  -6   10.14    2.04
  27  -3  -6    7.04    1.16
  27   3  -6    9.97    1.89
  27   3  -6   10.36    1.73
  25  -3  -6    5.19    0.94
  25   3  -6    5.10    1.43
  25   3  -6    4.98    1.42
  23  -3  -6    4.31    0.83
  23   3  -6    5.16    1.40
  23   3  -6    4.25    1.16
  21  -3  -6   63.88    2.34
  21   3  -6   64.82    3.18
  21   3  -6   70.81    3.34
 -21   3   6   67.51    2.76
  19  -3  -6   -0.34    0.40
 -19   3   6   -0.45    0.60
  19   3  -6    0.17    0.82
  19   3  -6   -0.99    0.75
  17  -3  -6   -0.28    0.33
 -17   3   6    0.76    0.53
  17   3  -6   -1.04    0.72
  17   3  -6    1.13    0.87
  15  -3  -6   23.37    0.88
 -15  -3   6   23.68    2.07
  15   3  -6   25.36    1.88
 -15   3   6   24.50    1.20
 -13  -3   6    6.26    0.98
 -13  -3   6    3.61    0.88
 -13   3   6    6.64    0.58
  13   3  -6    6.43    1.09
 -11  -3   6   45.67    2.15
 -11  -3   6   47.96    2.42
 -11  -3   6   50.71    2.25
  11   3  -6   44.59    2.26
  -9  -3   6    7.13    1.10
  -9  -3   6    8.94    1.09
   9  -3  -6    9.43    0.47
   9   3  -6    8.62    1.09
  -7  -3   6   52.52    2.46
   7  -3  -6   55.68    1.64
  -7  -3   6   53.54    2.27
   7   3  -6   51.94    2.30
  -7   3   6   52.79    1.66
   5  -3  -6   21.75    1.03
   5  -3  -6   21.50    0.85
  -5  -3   6   20.62    1.48
  -5  -3   6   23.88    1.72
   5  -3  -6   22.68    0.95
   5   3  -6   16.51    1.39
   5   3  -6   21.85    1.57
  -5   3   6   21.83    1.14
  -3  -3   6    1.14    0.90
   3  -3  -6    0.55    0.44
  -3  -3   6    0.91    0.64
   3  -3  -6    0.97    0.49
   3  -3  -6    1.03    0.29
  -3   3   6    1.24    0.33
  -3   3   6    1.76    0.63
   3   3  -6    0.37    0.69
   1  -3  -6   70.50    2.51
  -1  -3   6   72.72    2.97
  -1  -3   6   71.18    2.74
   1  -3  -6   67.97    2.42
   1   3  -6   72.54    2.82
  -1   3   6   71.14    2.05
  -1   3   6   73.43    2.64
  -1  -3  -6   14.37    1.34
   1  -3   6   13.16    1.48
   1   3   6   13.79    0.93
  -1   3  -6   11.52    1.30
   1   3   6   11.21    1.24
  -3  -3  -6   15.68    1.51
   3  -3   6   11.66    1.57
   3   3   6   11.07    1.33
   3   3   6   14.50    1.08
  -3   3  -6   17.24    1.70
   5  -3   6   48.37    2.67
   5   3   6   48.89    2.50
   5   3   6   52.55    2.12
   7  -3   6    0.20    0.84
   7   3   6   -0.18    0.58
   7   3   6    0.59    0.88
   9  -3   6   10.07    1.55
   9  -3   6   13.86    1.78
   9   3   6   15.18    1.55
   9   3   6   12.35    1.78
  11  -3   6   64.76    3.25
  11  -3   6   67.91    3.53
  11   3   6   70.84    3.46
  11   3   6   62.41    3.00
  13  -3   6    3.98    1.34
  13   3   6    6.56    1.37
  13   3   6    2.80    1.34
  15  -3   6    1.75    1.36
  15   3   6    0.03    0.91
  15   3   6    1.45    1.22
  17  -3   6    8.42    1.81
  17   3   6    6.86    1.73
  17   3   6    9.43    1.71
  19  -3   6    0.57    1.25
  19   3   6    0.19    1.30
  19   3   6    0.64    1.25
  21  -3   6   10.08    2.05
  21   3   6   13.61    2.21
  21   3   6   10.82    2.20
  23  -3   6    0.45    1.59
  23   3   6   -1.18    1.36
  23   3   6    1.23    1.58
  25  -3   6    7.99    2.16
  25   3   6    6.55    2.12
  25   3   6    4.27    2.01
  38   4  -6   46.78    4.33
  38   4  -6   52.55    4.85
  36   4  -6   -0.75    1.90
  36   4  -6   -0.19    1.60
  34   4  -6   70.38    4.50
  34   4  -6   71.44    4.79
  32  -4  -6    1.51    1.03
  32   4  -6    0.13    1.24
  32   4  -6   -0.92    1.46
  30  -4  -6   31.15    2.07
  30   4  -6   34.82    3.22
  30   4  -6   25.74    2.88
  28  -4  -6   25.62    1.84
  28   4  -6   22.56    2.58
  28   4  -6   22.93    2.51
  26  -4  -6    1.14    0.73
  26   4  -6    1.07    1.19
  26   4  -6    0.77    1.17
  24  -4  -6   80.48    2.88
  24   4  -6   81.25    3.87
  24   4  -6   78.97    4.00
  22  -4  -6   24.48    1.41
  22   4  -6   24.64    2.27
  22   4  -6   24.77    2.42
 -22   4   6   24.56    1.74
  20  -4  -6   72.11    2.39
  20   4  -6   75.46    3.52
  20   4  -6   78.70    3.64
 -20   4   6   74.15    2.77
  18  -4  -6    6.29    0.65
  18   4  -6    7.29    1.27
  18   4  -6    6.48    1.30
 -18   4   6    8.30    0.93
  16  -4  -6   58.67    1.78
 -16   4   6   64.20    2.09
  16   4  -6   61.34    2.97
  14  -4  -6   54.92    1.51
  14   4  -6   52.65    2.63
 -14   4   6   54.64    1.71
  12  -4  -6  359.64    8.18
 -12  -4   6  353.59    9.67
  12   4  -6  356.21    9.53
 -10  -4   6   39.13    2.33
  10  -4  -6   38.01    1.21
 -10  -4   6   36.38    2.03
 -10  -4   6   40.83    2.16
  10   4  -6   37.81    2.16
   8  -4  -6  461.51   10.84
  -8  -4   6  470.39   11.94
  -8  -4   6  456.01   11.70
   8   4  -6  469.51   11.82
   6  -4  -6   10.64    0.84
  -6  -4   6   10.38    1.22
   6  -4  -6   10.19    0.77
  -6  -4   6    7.83    1.20
   6   4  -6    9.08    1.31
   6   4  -6    8.11    1.20
  -6   4   6    8.24    0.83
  -4  -4   6   19.05    1.60
   4  -4  -6   16.13    0.90
  -4  -4   6   17.01    1.64
   4  -4  -6   13.69    0.98
  -4   4   6   18.51    1.24
   4   4  -6   15.78    1.45
   4   4  -6   17.36    1.61
   2  -4  -6   63.86    1.97
  -2  -4   6   63.69    2.66
   2  -4  -6   66.59    2.41
  -2  -4   6   64.92    2.90
  -2   4   6   65.82    2.04
  -2   4   6   65.59    2.50
   2   4  -6   56.65    2.71
   0  -4  -6   10.73    0.80
   0  -4  -6   10.76    1.15
   0  -4   6   11.01    1.77
   0   4  -6   11.25    1.40
   0   4   6    9.49    1.22
   0   4   6    9.36    0.81
   2  -4   6  206.95    6.40
  -2  -4  -6  214.73    6.15
   2   4   6  215.16    6.21
   2   4   6  212.40    5.57
   4  -4   6   11.24    1.53
   4   4   6   15.61    1.23
   4   4   6   16.38    1.66
   6  -4   6  161.18    5.46
   6   4   6  163.74    5.37
   6   4   6  152.25    4.71
   8  -4   6    8.00    1.61
   8   4   6   10.37    1.65
   8   4   6    6.49    1.08
  10  -4   6   34.25    2.51
  10  -4   6   36.11    2.65
  10   4   6   35.08    2.16
  10   4   6   27.12    2.43
  12  -4   6    9.07    1.73
  12  -4   6   10.83    1.87
  12   4   6    9.20    1.39
  12   4   6   11.73    1.83
  14  -4   6   14.00    2.13
  14   4   6   16.64    2.14
  14   4   6   12.13    1.67
  16  -4   6   54.34    3.52
  16   4   6   50.52    3.45
  16   4   6   52.00    3.21
  18  -4   6   38.84    3.39
  18   4   6   29.24    2.73
  18   4   6   37.01    3.49
  20  -4   6   25.08    2.80
  20   4   6   21.75    2.64
  20   4   6   21.53    2.85
  22  -4   6   11.65    2.28
  22   4   6   10.28    2.13
  22   4   6    9.83    2.40
  24  -4   6    9.74    2.21
  24   4   6   12.64    2.54
  24   4   6   10.73    2.41
  26  -4   6   -2.75    1.50
  26   4   6    1.35    1.83
  26   4   6    3.39    2.06
  37   5  -6   12.24    2.60
  37   5  -6   15.73    2.91
  35   5  -6    6.68    2.25
  35   5  -6    5.01    2.04
  33   5  -6    1.90    1.56
  33   5  -6    1.80    1.77
  31   5  -6    0.58    1.45
  31   5  -6    2.37    1.58
  29  -5  -6    2.49    0.91
  29   5  -6    1.89    1.38
  29   5  -6    1.77    1.71
  27  -5  -6   16.44    1.50
  27   5  -6   13.42    2.31
  27   5  -6   18.17    2.42
  25  -5  -6    5.31    0.92
  25   5  -6    5.55    1.63
  25   5  -6    3.95    1.52
  23  -5  -6    0.29    0.53
  23   5  -6    0.06    1.02
 -23   5   6    0.77    0.79
  23   5  -6    1.60    1.11
  21  -5  -6   12.93    1.04
  21   5  -6   14.36    1.88
 -21   5   6   12.93    1.36
  21   5  -6   12.86    1.89
  19  -5  -6   28.19    1.28
  19   5  -6   24.80    2.37
 -19   5   6   27.31    1.54
  17  -5  -6   12.22    0.81
 -17   5   6   11.70    0.99
  17   5  -6   11.44    1.61
  15  -5  -6   20.34    0.93
  15   5  -6   15.09    1.67
 -15   5   6   20.46    0.99
 -13  -5   6    7.36    1.37
  13  -5  -6    6.74    0.57
  13   5  -6    8.52    1.39
  11  -5  -6   18.46    0.89
 -11  -5   6   20.10    2.01
  11   5  -6   16.01    1.64
  -9  -5   6   31.51    2.21
   9  -5  -6   33.32    1.35
   9   5  -6   36.76    2.27
   7  -5  -6    0.76    0.44
   7  -5  -6    0.55    0.34
   7  -5  -6    0.83    0.48
  -7  -5   6    0.04    0.92
   7   5  -6    0.14    0.88
  -5  -5   6    2.15    1.01
   5  -5  -6    2.43    0.54
   5  -5  -6    1.97    0.55
  -5   5   6    1.64    0.64
   5   5  -6    1.99    0.94
   3  -5  -6    5.97    0.82
   3  -5  -6    4.73    0.66
  -3  -5   6    4.40    1.21
  -3   5   6    4.25    0.84
   1  -5  -6   20.38    1.42
   1  -5  -6   20.83    1.11
  -1  -5   6   18.12    1.84
  -1   5   6   22.54    1.72
  -1   5   6   19.42    1.23
  -1  -5  -6   67.70    2.32
   1  -5   6   66.06    3.15
   1   5   6   68.99    2.94
   1   5   6   74.21    2.49
   3  -5   6    0.72    0.88
  -3  -5  -6    1.05    0.50
   3   5   6   -0.12    0.59
   3   5   6   -1.11    0.72
   5  -5   6    0.30    0.91
   5   5   6   -0.07    0.96
   5   5   6    1.19    0.66
   7  -5   6    4.76    1.27
   7   5   6    3.33    0.92
   7   5   6    2.95    1.24
   9  -5   6    0.91    1.07
   9   5   6   -0.08    0.73
   9   5   6    0.49    1.15
  11  -5   6   -0.37    1.06
  11  -5   6   -0.17    1.13
  11   5   6    0.05    0.84
  11   5   6   -0.14    1.06
  13  -5   6   11.72    1.90
  13  -5   6   11.37    1.96
  13   5   6   10.45    1.96
  13   5   6    7.03    1.42
  15  -5   6    0.37    1.28
  15   5   6    1.65    1.22
  15   5   6    2.39    1.45
  17  -5   6    8.53    1.91
  17   5   6    5.93    1.80
  17   5   6    6.22    1.57
  19  -5   6    7.17    1.91
  19   5   6    8.78    2.17
  19   5   6    7.36    1.80
  21  -5   6    3.69    1.74
  21   5   6    2.97    1.52
  21   5   6    2.88    1.88
  23  -5   6    0.64    1.68
  23   5   6    0.58    1.82
  23   5   6    3.26    1.76
  25  -5   6    0.28    1.74
  25   5   6   -1.07    1.78
  25   5   6    0.16    1.67
  34   6  -6   29.34    3.51
  34   6  -6   37.43    3.92
  32   6  -6    2.66    1.88
  32   6  -6    4.35    1.78
  30   6  -6    2.49    1.67
  30   6  -6    4.86    1.95
  28   6  -6    3.67    1.63
  28   6  -6    5.65    1.86
  26  -6  -6   62.62    2.51
  26   6  -6   57.24    3.83
  26   6  -6   55.71    3.69
  24  -6  -6   88.07    3.00
  24   6  -6   85.77    4.49
  24   6  -6   88.94    4.49
  22  -6  -6   15.27    1.19
  22   6  -6   12.20    1.96
 -22   6   6   16.54    1.49
  20  -6  -6   22.50    1.27
 -20   6   6   23.64    1.50
  20   6  -6   25.10    2.45
  18  -6  -6    1.51    0.51
 -18   6   6    2.95    0.69
  18   6  -6    4.27    1.39
 -16   6   6   56.00    1.92
  16   6  -6   61.06    3.23
 -14  -6   6   28.37    2.58
  14  -6  -6   25.75    1.17
  14   6  -6   26.63    2.33
 -12  -6   6  151.19    5.42
  12  -6  -6  150.06    4.00
  12   6  -6  143.84    5.22
  10  -6  -6   39.98    1.32
  10  -6  -6   43.68    2.00
  10  -6  -6   47.06    1.71
 -10  -6   6   41.06    2.66
  10   6  -6   43.30    2.54
   8  -6  -6   23.73    1.46
  -8  -6   6   22.28    2.05
   8  -6  -6   25.68    1.35
   8  -6  -6   25.63    1.05
   8   6  -6   24.57    2.18
   6  -6  -6    3.61    0.67
   6  -6  -6    3.01    0.55
  -6  -6   6    3.43    1.15
   6  -6  -6    2.76    0.64
   6   6  -6    2.89    0.98
  -4  -6   6   84.76    3.56
   4  -6  -6   79.49    2.82
   4  -6  -6   78.19    2.69
  -4   6   6   75.19    2.94
   2  -6  -6   76.77    2.94
   2  -6  -6   79.23    2.67
  -2  -6   6   79.48    3.51
  -2   6   6   78.80    2.77
  -2   6   6   79.22    3.10
   0  -6   6   12.00    1.62
   0  -6  -6   12.37    1.07
   0   6   6   10.52    1.08
   0   6   6    9.84    1.34
  -2  -6  -6  198.39    5.52
   2  -6   6  200.15    6.49
   2   6   6  202.39    5.65
   2   6   6  199.80    6.26
  -4  -6  -6    3.81    0.76
   4  -6   6    2.61    1.19
   4   6   6    1.51    0.78
   4   6   6    4.98    1.26
   6  -6   6  138.30    5.21
   6   6   6  141.03    5.14
   6   6   6  132.20    4.43
   8  -6   6    3.32    1.32
   8   6   6    3.95    1.39
   8   6   6    3.38    1.00
  10  -6   6  150.73    5.73
  10   6   6  146.10    5.68
  10   6   6  142.82    5.00
  12  -6   6   62.08    3.81
  12   6   6   72.92    3.95
  12   6   6   71.09    3.42
  14  -6   6  119.32    5.27
  14  -6   6  119.38    5.15
  14   6   6  114.87    5.32
  14   6   6  117.71    4.73
  16  -6   6   60.79    3.75
  16   6   6   54.19    3.83
  16   6   6   61.73    3.57
  18  -6   6   53.38    3.74
  18   6   6   54.37    3.61
  18   6   6   58.37    4.06
  20  -6   6   11.72    2.28
  20   6   6   17.81    2.46
  20   6   6    7.74    2.17
  22  -6   6    2.70    1.78
  22   6   6   -0.80    1.57
  22   6   6    0.54    1.95
  24  -6   6   36.90    3.81
  24   6   6   33.07    3.89
  24   6   6   36.98    3.70
  33   7  -6    3.83    1.86
  33   7  -6    2.60    2.04
  31   7  -6    2.34    1.91
  31   7  -6    1.57    1.75
  29   7  -6    3.33    1.77
  29   7  -6    2.11    1.77
  27   7  -6    8.89    2.10
  27   7  -6    1.64    1.51
  25   7  -6   -1.72    1.14
  23  -7  -6   65.91    2.50
  23   7  -6   71.83    4.08
  21  -7  -6    2.56    0.71
  21   7  -6    1.21    1.41
  19  -7  -6   -0.09    0.55
 -19   7   6   -0.21    0.57
  19   7  -6   -0.11    1.18
  17  -7  -6    5.42    0.72
 -17   7   6    4.80    0.69
  17   7  -6    5.34    1.57
 -15  -7   6    1.63    1.27
  15  -7  -6    1.64    0.54
  15   7  -6    3.89    1.38
  13  -7  -6   45.05    1.49
 -13  -7   6   44.03    2.99
  13  -7  -6   43.45    1.77
  13   7  -6   42.71    2.76
 -11  -7   6   -0.47    1.00
  11  -7  -6   -0.13    0.37
  11  -7  -6    0.21    0.42
  11   7  -6    1.93    1.12
  -9  -7   6    0.77    1.04
   9  -7  -6    3.12    1.14
   9  -7  -6    2.66    0.68
   9  -7  -6    1.62    0.49
   9   7  -6    3.89    1.16
  -7  -7   6   18.91    2.12
   7  -7  -6   15.75    1.37
   7  -7  -6   13.52    1.27
   7  -7  -6   16.17    1.01
   7   7  -6   17.38    2.00
   5  -7  -6   10.56    1.18
   5  -7  -6    8.23    1.03
   5  -7  -6    8.50    0.92
  -5  -7   6    6.19    1.43
   5   7  -6   11.02    1.66
   3  -7  -6    9.69    1.05
  -3  -7   6   10.77    1.69
   1  -7  -6   -0.04    0.52
  -1  -7   6    0.46    1.04
  -1   7   6   -0.45    0.68
  -1   7   6    1.74    0.95
  -1  -7  -6   16.70    1.38
   1  -7   6   14.64    1.85
   1   7   6   14.02    1.67
   1   7   6   15.68    1.45
  -3  -7  -6    6.86    1.00
   3  -7   6    9.54    1.61
   3   7   6    6.68    1.37
   3   7   6    8.00    1.18
   5  -7   6    9.30    1.70
   5   7   6    8.39    1.57
   5   7   6   10.36    1.37
   7  -7   6   19.47    2.31
   7   7   6   24.82    2.58
   7   7   6   23.76    1.91
   9  -7   6   16.22    2.13
   9   7   6   18.81    1.88
   9   7   6   18.72    2.27
  11  -7   6   -0.48    1.23
  11   7   6    0.05    1.16
  11   7   6    0.79    1.02
  13  -7   6    5.41    1.76
  13   7   6    9.35    1.66
  13   7   6    5.72    1.75
  15  -7   6   10.65    2.16
  15  -7   6    8.78    2.12
  15   7   6   12.16    2.50
  15   7   6   13.66    2.01
  17  -7   6    8.11    2.02
  17   7   6    9.55    1.89
  17   7   6    9.18    2.36
  19  -7   6   -0.17    1.57
  19   7   6    0.23    1.33
  19   7   6    0.88    1.56
  21  -7   6    9.08    2.30
  21   7   6    6.67    2.02
  21   7   6    5.83    2.38
  32   8  -6   11.74    2.76
  30   8  -6   18.53    3.03
  28   8  -6   16.06    2.71
  26   8  -6   44.73    4.02
  24   8  -6   68.20    4.31
  22   8  -6    2.03    1.57
  20  -8  -6   81.71    2.84
  20   8  -6   83.81    4.33
 -18  -8   6    7.15    1.87
  18   8  -6    6.00    1.75
 -16  -8   6  106.97    5.02
  16   8  -6  109.87    4.92
  14  -8  -6   17.90    1.29
 -14  -8   6   14.36    2.11
  14  -8  -6   15.41    0.95
  14   8  -6   15.52    2.15
  12  -8  -6   66.65    2.48
  12  -8  -6   63.82    2.07
 -12  -8   6   66.78    3.70
  12   8  -6   62.14    3.61
 -10  -8   6   64.41    3.57
  10  -8  -6   67.02    2.21
  10  -8  -6   66.40    2.55
  10   8  -6   64.99    3.47
   8  -8  -6   11.41    1.21
   8  -8  -6    9.43    0.94
  -8  -8   6   10.55    1.81
   8   8  -6    7.02    1.53
  -6  -8   6   48.53    3.03
   6  -8  -6   46.50    1.96
   6   8  -6   41.46    2.94
   4  -8  -6   73.47    2.77
  -4  -8   6   79.25    3.80
  -2  -8   6   67.61    3.53
   0  -8   6   17.89    2.10
   0   8   6   14.78    1.74
   0   8   6   15.92    1.60
   2  -8   6   92.26    4.21
   2   8   6   88.19    4.00
   2   8   6   87.92    3.48
   4  -8   6    2.72    1.35
   4   8   6    3.12    1.32
   4   8   6    3.97    1.10
   6  -8   6   40.85    2.92
   6   8   6   40.37    2.47
   6   8   6   40.98    3.00
   8  -8   6    1.56    1.28
   8   8   6    3.16    1.19
   8   8   6    2.94    1.40
  10  -8   6  122.39    5.33
  10   8   6  124.27    5.57
  10   8   6  120.74    4.69
  12  -8   6   43.79    3.36
  12   8   6   42.08    3.75
  12   8   6   49.08    3.04
  14  -8   6   38.18    3.52
  14  -8   6   26.12    2.92
  14   8   6   30.77    3.25
  14   8   6   25.94    2.52
  16  -8   6    5.17    1.94
  16  -8   6    7.03    1.92
  16   8   6    3.38    1.57
  16   8   6    7.44    2.25
  18  -8   6    5.53    2.01
  18   8   6    4.21    1.71
  18   8   6    4.87    2.20
  20  -8   6   17.69    2.73
  20   8   6   19.91    3.23
  20   8   6   19.46    2.67
  29   9  -6   -1.09    1.57
  27   9  -6    7.26    2.11
  25   9  -6    1.66    1.66
  23   9  -6   12.85    2.32
 -21  -9   6   -2.92    1.38
  21   9  -6   -0.63    1.43
 -19  -9   6   17.08    2.63
  19   9  -6   17.95    2.48
 -17  -9   6    0.69    1.50
  17   9  -6    1.17    1.52
 -15  -9   6    5.43    1.75
  15   9  -6    7.76    1.90
  13  -9  -6   13.16    1.09
 -13  -9   6   11.11    2.09
  13   9  -6   15.26    2.34
 -11  -9   6    7.12    1.70
  11  -9  -6    4.27    0.74
  11   9  -6    3.43    1.53
   9  -9  -6   20.63    1.30
  -9  -9   6   17.88    2.31
   9   9  -6   20.36    2.43
  -7  -9   6   -0.94    1.12
   7  -9  -6   -0.04    0.50
   7   9  -6    0.57    1.29
   5  -9  -6   -0.23    0.54
  -5  -9   6    0.47    1.23
   3  -9  -6    0.43    0.64
  -3  -9   6    1.64    1.33
   1  -9  -6    8.21    1.28
  -1  -9   6    9.45    1.77
   1  -9   6    3.36    1.44
   1   9   6    6.70    1.28
   3  -9   6    5.59    1.53
   3   9   6    6.86    1.61
   3   9   6    5.35    1.27
   5  -9   6    3.33    1.45
   5   9   6    0.38    1.33
   5   9   6    1.02    1.04
   7  -9   6    3.12    1.55
   7   9   6    0.45    1.12
   7   9   6    1.59    1.46
   9  -9   6    9.15    1.98
   9   9   6   12.58    2.21
   9   9   6    8.22    1.59
  11  -9   6    0.22    1.37
  11   9   6   -0.80    1.29
  11   9   6    0.17    1.20
  13  -9   6   14.88    2.46
  13   9   6   17.15    2.15
  13   9   6   11.32    2.39
  15  -9   6    0.55    1.57
  15  -9   6    1.86    1.60
  15   9   6    0.99    1.42
  15   9   6    1.20    1.71
  17  -9   6    1.56    1.63
  17  -9   6    0.32    1.81
  17   9   6    3.56    1.68
  17   9   6    1.62    1.85
  28  10  -6   -0.64    1.96
  26  10  -6   40.73    4.13
 -24 -10   6   15.53    2.78
  24  10  -6   24.13    3.28
 -22 -10   6    4.30    2.08
  22  10  -6    4.38    2.05
 -20 -10   6   43.87    4.20
  20  10  -6   53.77    4.35
 -18 -10   6    0.27    1.56
  18  10  -6    1.66    1.67
 -16 -10   6   76.57    4.66
  16  10  -6   84.70    4.72
 -14 -10   6   16.11    2.48
  14  10  -6   23.47    2.83
 -12 -10   6   67.19    4.11
  12  10  -6   64.27    4.09
 -10 -10   6   -0.18    1.28
  10  10  -6   -0.61    1.37
  -8 -10   6    1.51    1.39
   8 -10  -6    1.92    0.95
   6 -10  -6   11.27    1.31
  -6 -10   6   11.92    2.03
  -4 -10   6   83.25    4.28
   4 -10  -6   76.42    3.14
   2 -10  -6   29.67    2.06
  -2 -10   6   34.67    3.09
   0 -10   6   41.81    3.19
   0 -10  -6   39.97    2.53
   2 -10   6   20.00    2.43
  -2 -10  -6   13.71    1.80
   4 -10   6    5.44    1.68
   4  10   6    3.88    1.34
   6 -10   6   18.80    2.45
   6  10   6   15.73    1.99
   6  10   6   17.64    2.52
   8 -10   6    3.38    1.66
   8  10   6    2.87    1.71
   8  10   6    4.81    1.58
  10 -10   6   66.20    4.13
  10  10   6   72.30    3.85
  10  10   6   65.81    4.30
  12 -10   6   10.85    2.22
  12  10   6   10.38    2.48
  12  10   6   11.14    1.98
  14 -10   6   13.63    2.46
  14  10   6   13.91    2.88
  16 -10   6    4.40    2.12
  16 -10   6    6.92    2.14
  16  10   6    4.71    2.06
 -23 -11   6    7.87    2.51
  23  11  -6    1.06    1.96
 -21 -11   6    3.46    2.07
  21  11  -6   -2.37    1.62
 -19 -11   6    8.24    2.31
  19  11  -6    7.85    2.39
 -17 -11   6    0.83    1.72
  17  11  -6    2.26    1.83
 -15 -11   6    1.34    1.61
  15  11  -6    0.98    1.60
 -13 -11   6    2.34    1.68
  13  11  -6   -0.84    1.41
 -11 -11   6    3.56    1.73
  11  11  -6    4.34    1.77
  -9 -11   6    0.52    1.39
  -7 -11   6    3.16    1.62
  -5 -11   6   28.05    3.03
  -3 -11   6    1.88    1.55
   1 -11  -6    7.50    1.48
  -1 -11   6   13.27    2.21
  -1 -11  -6    1.55    1.13
   1 -11   6    3.10    1.57
   3 -11   6    3.36    1.59
  -3 -11  -6    1.20    1.25
   5 -11   6    9.58    2.06
   5  11   6   10.21    1.79
   7 -11   6   -0.53    1.41
   7  11   6    2.61    1.50
   9 -11   6   18.88    2.69
  11 -11   6    1.17    1.57
  11  11   6    2.67    2.01
 -20 -12   6   17.58    3.09
  20  12  -6   21.66    3.31
 -18 -12   6    5.52    2.29
  18  12  -6    5.05    2.25
 -16 -12   6   22.93    3.15
  16  12  -6   19.42    3.08
 -14 -12   6    0.04    1.61
  14  12  -6   -1.83    1.59
 -12 -12   6   41.19    3.89
  12  12  -6   35.99    3.82
 -10 -12   6    3.33    1.83
  -8 -12   6   22.02    2.85
  -6 -12   6    6.11    1.89
  -4 -12   6   21.64    2.84
  -2 -12   6   21.17    2.83
   0 -12   6    8.49    2.02
   2 -12   6   36.96    3.49
   4 -12   6   -0.93    1.45
   6 -12   6   25.86    3.10
  -8 -12  -6   -1.07    2.12
 -11 -13   6    5.64    2.25
  -9 -13   6    5.01    2.09
  -7 -13   6    1.18    1.69
  -5 -13   6   19.37    2.91
  -3 -13   6    1.92    1.79
  -1 -13   6   17.55    2.76
   1 -13   6    2.70    2.06
  40   0  -7   -0.85    1.92
  40   0  -7    2.34    1.60
  38   0  -7    0.94    1.35
  38   0  -7    0.63    1.89
  36   0  -7   -1.02    1.55
  36   0  -7   -1.06    1.06
  34   0  -7   -1.48    1.36
  34   0  -7    1.03    1.19
  32   0  -7   -0.10    1.34
  32   0  -7    0.18    0.99
  30   0  -7    0.83    1.34
  30   0  -7   -0.27    0.89
  28   0  -7   -0.06    0.84
  28   0  -7   -0.64    1.05
  26   0  -7   -0.22    1.03
  26   0  -7    0.25    0.71
  24   0  -7   -0.42    0.68
  24   0  -7    0.02    0.96
 -22   0   7   -0.21    0.64
  22   0  -7    0.59    0.89
  22   0  -7    0.19    0.66
  20   0  -7    1.03    0.95
  20   0  -7    0.19    0.56
 -20   0   7    1.00    0.63
  18   0  -7    1.12    0.84
 -18   0   7   -0.14    0.56
  18   0  -7   -0.29    0.51
  16   0  -7   -0.17    0.45
  16   0  -7    0.46    0.73
 -16   0   7    0.06    0.50
  14   0  -7    0.14    0.62
 -14   0   7    0.31    0.49
 -12   0   7   -0.01    0.43
 -12   0   7   -0.35    0.47
  12   0  -7   -1.08    0.52
 -10   0   7   -0.31    0.59
  10   0  -7    0.36    0.48
 -10   0   7   -0.10    0.45
   8   0  -7   -0.74    0.41
  -8   0   7    0.07    0.44
  -8   0   7   -0.32    0.59
   8   0  -7    0.11    0.52
   6   0  -7   -0.41    0.41
  -6   0   7    0.11    0.63
   6   0  -7    0.29    0.53
  -6   0   7   -0.03    0.37
  -4   0   7   -0.29    0.39
  -4   0   7   -0.45    0.61
   4   0  -7    0.52    0.61
  -2   0   7   -1.47    0.65
   2   0  -7    0.42    0.63
   0   0  -7   -0.58    0.59
   0   0   7    0.66    0.74
   0   0   7   -0.49    0.71
  -2   0  -7   -0.65    0.64
   2   0   7   -0.05    0.78
   2   0   7    0.44    0.76
   4   0   7    2.53    1.08
   4   0   7   -0.62    0.90
   6   0   7    0.01    0.95
   8   0   7    0.56    1.00
  10   0   7    0.01    0.92
  12   0   7    0.46    1.03
  14   0   7    0.07    1.18
  16   0   7   -1.44    1.04
  18   0   7   -1.77    1.06
  20   0   7    0.29    1.37
  22   0   7   -1.72    1.28
  24   0   7    1.38    1.74
  26   0   7   -1.98    1.67
  39  -1  -7    8.29    2.35
  39  -1  -7    9.71    2.00
  39   1  -7   12.06    2.26
  39   1  -7    8.82    2.44
  37  -1  -7    8.08    2.27
  37  -1  -7    4.62    1.55
  37   1  -7    7.13    2.17
  37   1  -7    6.52    1.85
  35  -1  -7   17.86    2.21
  35  -1  -7   22.36    3.05
  35   1  -7   19.89    2.45
  35   1  -7   21.78    3.02
  33  -1  -7   59.34    3.89
  33  -1  -7   47.83    3.02
  33   1  -7   50.16    3.67
  33   1  -7   52.15    3.32
  31  -1  -7  138.08    5.99
  31  -1  -7  140.73    5.07
  31   1  -7  145.40    5.47
  31   1  -7  139.97    5.90
  29  -1  -7   18.32    2.41
  29  -1  -7   13.92    1.66
  29   1  -7   10.96    1.97
  29   1  -7   14.67    1.88
  27  -1  -7   89.28    3.44
  27   1  -7   81.45    3.62
  27   1  -7   85.06    4.08
  25  -1  -7   13.64    1.38
  25   1  -7   13.91    1.59
  25   1  -7   18.02    2.11
  23  -1  -7   56.46    2.42
  23   1  -7   59.08    2.71
  23   1  -7   59.38    3.14
 -23   1   7   58.00    2.44
 -21  -1   7    5.31    1.24
  21  -1  -7    2.99    0.69
  21   1  -7    3.98    0.88
 -21   1   7    2.81    0.75
  21   1  -7    3.08    1.02
 -19  -1   7  241.23    6.75
  19  -1  -7  257.49    6.46
  19   1  -7  244.46    6.81
 -19   1   7  248.99    6.42
  19   1  -7  249.24    7.20
  17  -1  -7  122.22    3.40
 -17  -1   7  121.18    3.77
 -17   1   7  120.70    3.40
  17   1  -7  120.58    4.09
  17   1  -7  116.49    3.77
 -15  -1   7  131.48    4.06
 -15  -1   7  119.74    3.76
  15   1  -7  127.77    4.05
 -15   1   7  128.37    3.38
 -13  -1   7    3.23    0.81
 -13  -1   7    1.78    0.65
  13  -1  -7    2.84    0.71
 -13   1   7    2.08    0.41
  13   1  -7    1.85    0.72
  11  -1  -7  219.26    5.57
 -11  -1   7  217.59    5.77
 -11  -1   7  212.90    5.91
  11   1  -7  219.61    5.82
 -11   1   7  218.60    5.47
  -9  -1   7   87.27    2.70
  -9  -1   7   80.12    2.85
   9  -1  -7   84.19    2.41
   9  -1  -7   83.45    2.36
  -9   1   7   82.38    2.44
   9   1  -7   85.66    2.82
   9   1  -7   79.08    2.66
   7  -1  -7   91.17    2.40
  -7  -1   7   93.20    2.83
   7  -1  -7   93.44    2.69
  -7  -1   7   93.41    3.10
  -7   1   7   96.32    2.75
   7   1  -7   92.23    2.85
   7   1  -7   93.33    3.03
  -7   1   7   95.57    2.42
  -5  -1   7  499.55   12.57
   5  -1  -7  526.94   12.28
  -5  -1   7  527.85   12.27
  -5   1   7  502.07   12.26
   5   1  -7  510.89   12.28
  -5   1   7  526.47   12.32
  -5   1   7  525.49   11.75
   5   1  -7  524.37   12.57
   3  -1  -7   13.12    1.16
  -3  -1   7   11.04    1.24
  -3  -1   7    9.65    0.89
   3   1  -7    8.91    1.03
  -3   1   7   10.59    1.05
  -3   1   7    9.43    1.02
   1  -1  -7   59.57    2.39
  -1  -1   7   58.32    2.60
  -1   1   7   65.45    2.44
  -1   1   7   64.23    2.49
   1   1  -7   59.87    2.51
   1  -1   7   61.96    2.64
  -1  -1  -7   57.89    2.40
  -1  -1  -7   57.32    2.48
   1   1   7   60.20    2.57
   1   1   7   52.02    2.40
  -1   1  -7   61.57    2.60
  -3  -1  -7  272.46    7.49
   3  -1   7  266.66    7.76
  -3  -1  -7  284.04    7.65
   3  -1   7  263.78    7.66
   3   1   7  273.75    7.67
  -3   1  -7  280.26    7.69
   5  -1   7  122.53    4.55
   5  -1   7  128.23    4.45
   5   1   7  131.64    4.50
   7  -1   7  108.74    4.25
   7  -1   7  104.77    4.06
   7   1   7  105.94    4.09
   9  -1   7   78.65    3.57
   9   1   7   81.34    3.61
  11  -1   7   54.15    3.14
  11   1   7   54.24    3.06
  13  -1   7   34.27    2.89
  13   1   7   31.17    2.81
  15  -1   7   49.47    3.20
  15   1   7   43.12    3.10
  17  -1   7  112.85    5.13
  17   1   7  109.18    5.18
  19  -1   7    9.86    2.16
  19   1   7   13.77    2.36
  21  -1   7   50.00    3.62
  21   1   7   42.39    3.79
  23  -1   7    1.42    1.78
  23   1   7   -1.18    1.57
  23   1   7    0.94    1.64
  25  -1   7   55.85    4.76
  25   1   7   60.99    4.57
  25   1   7   59.98    4.96
  38  -2  -7    2.29    2.10
  38  -2  -7   -1.97    1.10
  38   2  -7    0.73    1.44
  38   2  -7   -0.68    1.82
  36  -2  -7   11.15    1.85
  36  -2  -7    7.38    2.31
  36   2  -7    8.07    2.17
  36   2  -7    8.45    2.00
  34  -2  -7    3.11    1.21
  34   2  -7    2.07    1.55
  34   2  -7    0.02    1.18
  32  -2  -7   11.35    1.63
  32   2  -7    6.49    1.68
  32   2  -7    8.22    2.05
  30  -2  -7   -0.67    0.77
  30   2  -7   -1.66    1.00
  30   2  -7    0.17    1.24
  28  -2  -7    8.78    1.28
  28   2  -7    9.18    1.62
  28   2  -7    6.15    1.73
  26  -2  -7    5.30    0.99
  26   2  -7    4.58    1.19
  26   2  -7    3.45    1.39
 -26   2   7    6.96    1.26
  24  -2  -7    0.10    0.57
 -24   2   7    0.27    0.63
  24   2  -7   -0.16    0.90
  24   2  -7    1.47    0.91
  22  -2  -7   38.64    1.74
 -22   2   7   36.38    1.76
  22   2  -7   44.15    2.42
  22   2  -7   35.98    2.43
  20  -2  -7    9.25    0.86
  20   2  -7    9.15    1.23
 -20   2   7   10.26    0.94
  20   2  -7    8.31    1.30
  18  -2  -7    0.63    0.39
 -18  -2   7    1.63    0.78
  18   2  -7    1.03    0.83
 -18   2   7    1.38    0.48
  18   2  -7    1.42    0.77
 -16  -2   7    7.36    1.10
 -16  -2   7    4.60    0.91
  16  -2  -7    5.00    0.49
  16   2  -7    3.59    0.97
 -16   2   7    8.30    0.70
 -14  -2   7    0.11    0.75
 -14  -2   7   -0.35    0.62
 -14   2   7    0.32    0.23
  14   2  -7   -0.78    0.63
 -12  -2   7    5.59    1.10
 -12  -2   7    4.74    0.89
 -12  -2   7    5.96    0.87
 -12   2   7    6.15    0.58
  12   2  -7    5.15    0.99
 -10  -2   7   37.25    1.78
 -10  -2   7   30.17    1.88
  10   2  -7   35.43    1.83
 -10   2   7   32.79    1.12
 -10   2   7   33.38    0.97
  -8  -2   7    5.77    0.99
   8  -2  -7    7.73    0.59
  -8  -2   7    7.15    0.93
   8   2  -7    4.87    0.84
  -8   2   7    8.30    0.62
   8   2  -7    4.95    0.91
  -8   2   7    7.10    0.60
   6  -2  -7    7.87    0.73
  -6  -2   7    8.87    0.92
  -6  -2   7   11.55    1.31
  -6   2   7    8.29    0.78
   6   2  -7    8.94    1.05
  -6   2   7   10.36    0.82
   6   2  -7    6.49    0.93
   4  -2  -7  170.28    4.51
  -4  -2   7  164.06    4.96
   4  -2  -7  165.38    4.46
  -4  -2   7  163.97    4.67
  -4   2   7  164.95    4.46
  -4   2   7  168.12    4.54
   4   2  -7  166.26    4.88
  -2  -2   7   -0.19    0.77
   2  -2  -7    0.39    0.56
   2  -2  -7    0.93    0.56
  -2  -2   7    0.25    0.59
  -2   2   7   -0.10    0.67
   2   2  -7    0.35    0.71
  -2   2   7    0.41    0.29
   0  -2  -7   24.16    1.46
   0  -2   7   23.83    1.83
   0  -2  -7   24.12    1.55
   0   2  -7   24.33    1.76
   0   2   7   22.14    1.53
  -2  -2  -7    1.35    0.72
   2  -2   7    1.12    0.94
  -2  -2  -7    3.15    0.85
  -2   2  -7    3.85    1.07
   2   2   7    2.52    0.95
   4  -2   7    8.22    1.44
   4   2   7    5.81    1.14
   6  -2   7    7.66    1.35
   6  -2   7    8.96    1.43
   6   2   7    9.47    1.35
   8  -2   7   10.87    1.57
   8  -2   7   12.73    1.78
   8   2   7   13.68    1.78
  10  -2   7   32.73    2.63
  10  -2   7   29.84    2.62
  10   2   7   25.73    2.37
  12  -2   7   14.91    1.96
  12   2   7   14.32    2.03
  14  -2   7    9.50    1.89
  14   2   7    4.77    1.45
  16  -2   7    0.52    1.33
  16   2   7    0.80    1.40
  16   2   7    3.45    1.38
  18  -2   7    2.24    1.54
  18   2   7   -0.20    1.37
  18   2   7   -0.66    1.16
  20  -2   7    4.83    1.68
  20   2   7    4.38    1.70
  20   2   7    3.93    1.77
  22  -2   7    4.87    1.79
  22   2   7    3.92    1.88
  22   2   7    3.18    1.75
  24  -2   7    2.30    1.70
  24   2   7   -0.20    1.77
  24   2   7    1.51    1.76
  26  -2   7   -0.77    1.80
  26   2   7   -2.28    1.44
  26   2   7    2.27    1.71
  39  -3  -7   -2.06    1.71
  39   3  -7    2.02    2.09
  39   3  -7    0.42    1.67
  37   3  -7   39.26    4.17
  37   3  -7   33.26    3.43
  35  -3  -7    1.45    1.13
  35   3  -7   -1.27    1.48
  35   3  -7    0.74    1.49
  33  -3  -7   61.46    3.06
  33   3  -7   55.33    3.58
  33   3  -7   59.50    4.21
  31  -3  -7   66.08    3.04
  31   3  -7   68.18    3.87
  31   3  -7   67.33    4.24
  29  -3  -7    9.29    1.27
  29   3  -7    9.85    1.71
  29   3  -7   11.18    2.06
  27  -3  -7  121.37    4.08
  27   3  -7  125.83    5.05
  27   3  -7  128.93    5.38
  25  -3  -7    0.29    0.58
  25   3  -7   -0.30    0.86
  25   3  -7    1.50    1.19
  23  -3  -7  166.84    4.74
  23   3  -7  166.28    5.74
  23   3  -7  175.88    6.01
 -23   3   7  173.71    5.25
  21  -3  -7    0.06    0.43
  21   3  -7    0.64    0.91
 -21   3   7   -0.03    0.58
  21   3  -7    0.26    0.79
  19  -3  -7  221.81    5.59
  19   3  -7  232.38    6.93
 -19   3   7  227.79    6.07
  19   3  -7  225.65    6.73
  17  -3  -7   23.56    0.87
 -17   3   7   22.74    1.23
  17   3  -7   27.01    2.10
 -15  -3   7   22.25    1.57
 -15   3   7   18.41    0.95
  15   3  -7   18.86    1.73
 -13  -3   7   34.24    2.20
 -13  -3   7   40.82    2.10
  13   3  -7   39.57    2.11
 -13   3   7   39.00    1.16
 -11  -3   7  164.43    4.87
 -11  -3   7  157.80    5.04
  11   3  -7  161.44    4.91
  -9  -3   7  209.59    5.88
  -9  -3   7  202.29    6.02
   9  -3  -7  206.37    5.00
  -9   3   7  209.92    5.01
   9   3  -7  216.84    6.00
   9   3  -7  215.03    6.04
   7  -3  -7   96.64    2.64
  -7  -3   7   92.72    3.22
   7  -3  -7   95.73    2.45
   7  -3  -7   93.43    2.47
  -7  -3   7   91.88    3.44
  -7   3   7   93.48    2.67
   7   3  -7   93.18    3.32
   7   3  -7   92.79    3.35
  -5  -3   7   56.25    2.59
   5  -3  -7   63.80    1.99
   5  -3  -7   62.72    2.06
   5  -3  -7   60.86    1.55
  -5  -3   7   57.08    2.37
   5   3  -7   60.16    2.54
  -5   3   7   57.93    2.11
   3  -3  -7   38.42    1.67
  -3  -3   7   33.58    2.11
   3  -3  -7   37.54    1.61
  -3  -3   7   33.70    1.80
   3   3  -7   36.42    2.01
  -3   3   7   31.99    1.69
  -3   3   7   35.09    1.08
   1  -3  -7  131.07    3.97
   1  -3  -7  135.53    4.05
  -1  -3   7  129.02    4.45
  -1  -3   7  129.18    4.17
  -1   3   7  123.19    4.01
  -1   3   7  130.91    3.37
   1   3  -7  134.62    4.36
  -1  -3  -7    1.02    0.78
  -1  -3  -7    0.05    0.68
   1  -3   7    0.37    1.26
   1   3   7   -0.49    0.75
   1   3   7   -0.37    0.41
  -1   3  -7   -1.48    0.89
  -3  -3  -7  296.23    8.02
   3  -3   7  286.11    8.33
   3   3   7  292.81    8.09
   3   3   7  288.71    7.38
   5  -3   7    4.27    1.19
   5   3   7    5.58    1.17
   5   3   7    3.32    0.77
   7  -3   7   42.29    2.62
   7  -3   7   37.18    2.61
   7   3   7   39.09    2.06
   7   3   7   42.11    2.62
   9  -3   7   20.64    2.22
   9  -3   7   21.71    2.33
   9   3   7   18.55    2.10
   9   3   7   18.69    1.65
  11  -3   7   25.54    2.53
  11  -3   7   24.50    2.39
  11   3   7   25.29    2.44
  11   3   7   22.08    1.95
  13  -3   7   41.56    3.07
  13   3   7   44.73    3.04
  13   3   7   48.26    2.90
  15  -3   7   21.03    2.57
  15   3   7   23.40    2.32
  15   3   7   21.91    2.52
  17  -3   7   83.60    4.45
  17   3   7   91.11    4.38
  17   3   7   98.36    4.89
  19  -3   7    0.58    1.28
  19   3   7    1.54    1.43
  19   3   7    3.06    1.77
  21  -3   7   33.61    3.48
  21   3   7   40.65    3.89
  21   3   7   34.24    3.32
  23  -3   7    0.72    1.62
  23   3   7    2.75    1.73
  23   3   7    5.55    1.91
  25  -3   7   14.83    2.70
  25   3   7    9.73    2.51
  25   3   7   21.25    3.12
  38   4  -7    0.94    1.99
  38   4  -7    1.94    1.71
  36   4  -7   -0.67    1.72
  36   4  -7    0.23    1.43
  34   4  -7    4.38    1.79
  34   4  -7    0.36    1.74
  32  -4  -7    0.51    0.91
  32   4  -7   -2.23    1.29
  32   4  -7   -0.68    1.07
  30  -4  -7   10.60    1.39
  30   4  -7   12.43    2.14
  30   4  -7   12.56    2.34
  28  -4  -7   20.20    1.66
  28   4  -7   18.89    2.40
  28   4  -7   18.54    2.24
  26  -4  -7    9.35    1.04
  26   4  -7    8.66    1.87
  26   4  -7   10.29    1.78
  24  -4  -7    7.14    0.87
  24   4  -7    5.46    1.37
 -24   4   7    8.19    1.25
  24   4  -7    6.62    1.58
  22  -4  -7   45.66    1.73
 -22   4   7   44.04    2.11
  22   4  -7   45.57    2.82
  22   4  -7   41.80    2.65
  20  -4  -7    0.38    0.37
 -20   4   7    0.89    0.59
  20   4  -7    0.69    0.93
  20   4  -7    2.41    1.19
  18  -4  -7    4.18    0.42
 -18   4   7    5.52    0.73
  18   4  -7    4.22    1.17
 -16   4   7   11.44    0.78
  16   4  -7   14.99    1.66
 -14  -4   7   32.60    2.31
  14   4  -7   35.42    2.24
 -12  -4   7   16.68    1.81
  12   4  -7   13.22    1.53
 -10  -4   7    3.36    1.06
  10  -4  -7    3.58    0.43
  10   4  -7    2.17    0.94
  -8  -4   7    8.48    1.22
   8  -4  -7   10.09    0.46
  -8  -4   7    8.80    1.40
   8  -4  -7    7.20    0.67
   8  -4  -7    8.88    0.73
   8   4  -7    6.46    1.16
  -8   4   7    8.47    0.74
   8   4  -7    9.79    1.30
   6  -4  -7    1.26    0.39
  -6  -4   7   -1.11    0.80
   6  -4  -7    0.65    0.36
   6  -4  -7   -0.09    0.38
  -6  -4   7    0.71    0.71
   6   4  -7    1.65    0.90
  -6   4   7    0.98    0.55
   6   4  -7    1.07    0.81
   4  -4  -7   17.15    1.14
   4  -4  -7   16.94    1.06
  -4  -4   7   16.32    1.67
   4  -4  -7   15.70    0.82
  -4  -4   7   13.86    1.66
  -4   4   7   15.99    1.25
   4   4  -7   18.69    1.81
  -2  -4   7   95.00    3.91
   2  -4  -7   94.20    3.25
   2  -4  -7   95.91    2.67
   2   4  -7  100.67    4.03
  -2   4   7   98.10    3.35
  -2   4   7   99.92    2.72
   0  -4  -7    1.07    0.70
   0  -4   7   -0.21    0.89
   0   4   7   -0.13    0.65
   0   4   7    1.13    0.45
   2  -4   7    5.24    1.20
   2   4   7    4.61    1.09
   2   4   7    3.93    0.71
   4  -4   7    8.64    1.45
   4   4   7    7.07    1.26
   4   4   7    8.55    0.98
   6  -4   7    5.69    1.34
   6   4   7    4.44    0.86
   6   4   7    7.48    1.46
   8  -4   7    0.80    1.13
   8   4   7    2.55    0.86
   8   4   7    2.63    1.15
  10  -4   7   38.69    3.02
  10  -4   7   36.17    3.03
  10   4   7   39.51    2.35
  10   4   7   37.09    2.70
  12  -4   7    1.79    1.31
  12  -4   7   -0.34    1.22
  12   4   7    1.75    1.26
  12   4   7    3.15    1.08
  14  -4   7    2.84    1.48
  14   4   7    3.34    1.22
  14   4   7    4.01    1.49
  16  -4   7    2.21    1.44
  16   4   7    2.82    1.48
  16   4   7    3.27    1.34
  18  -4   7    1.10    1.50
  18   4   7   -1.27    1.23
  18   4   7   -0.12    1.19
  20  -4   7   -0.68    1.42
  20   4   7    0.77    1.33
  20   4   7   -0.80    1.54
  22  -4   7    9.11    2.20
  22   4   7   11.77    2.35
  22   4   7    6.35    2.06
  24  -4   7    3.86    1.93
  24   4   7    7.07    2.18
  24   4   7    7.50    2.35
  37   5  -7   55.77    5.06
  37   5  -7   48.06    4.44
  35   5  -7    6.99    2.10
  35   5  -7    9.01    2.42
  33   5  -7   16.98    2.67
  33   5  -7   11.05    2.46
  31   5  -7    7.65    1.89
  31   5  -7    6.69    2.12
  29  -5  -7   11.91    1.29
  29   5  -7    7.63    1.96
  29   5  -7    9.57    1.88
  27  -5  -7   62.30    2.46
  27   5  -7   61.83    3.64
  27   5  -7   55.40    3.75
  25  -5  -7   17.95    1.25
  25   5  -7   13.12    1.98
  25   5  -7   15.99    2.17
  23  -5  -7   99.59    2.97
 -23   5   7   98.84    3.41
  23   5  -7   96.25    4.37
  23   5  -7   94.73    4.30
  21  -5  -7    6.46    0.67
  21   5  -7    9.22    1.68
 -21   5   7    7.85    1.00
  19  -5  -7   46.92    1.46
  19   5  -7   42.08    2.68
 -19   5   7   44.12    1.78
  17  -5  -7   42.29    1.28
  17  -5  -7   44.61    1.30
  17   5  -7   46.49    2.78
 -17   5   7   43.66    1.52
 -15  -5   7  125.50    4.72
  15  -5  -7  119.57    2.97
  15  -5  -7  119.74    2.95
  15   5  -7  123.22    4.56
  13  -5  -7  101.54    2.64
 -13  -5   7  104.92    4.23
  13   5  -7  107.19    4.07
  11  -5  -7   14.55    0.79
 -11  -5   7   15.86    1.84
  11   5  -7   13.59    1.52
   9  -5  -7   19.44    1.02
  -9  -5   7   20.64    1.98
   9  -5  -7   18.29    1.16
   9   5  -7   19.13    1.82
  -7  -5   7   -0.49    0.88
   7  -5  -7    0.40    0.43
   7  -5  -7   -0.12    0.39
   7   5  -7    1.21    0.89
  -7   5   7    0.89    0.53
   5  -5  -7   26.46    1.38
   5  -5  -7   27.11    1.26
  -5  -5   7   28.22    2.29
  -5   5   7   28.43    1.56
   5   5  -7   28.28    2.16
  -3  -5   7    0.46    1.04
   3  -5  -7    2.35    0.50
   3  -5  -7    0.97    0.57
  -3   5   7    1.40    0.74
   1  -5  -7  193.79    5.65
   1  -5  -7  190.99    5.04
  -1  -5   7  189.04    6.16
  -1   5   7  200.16    5.14
  -1   5   7  197.21    5.79
  -1  -5  -7   54.12    1.96
   1  -5   7   50.40    2.89
   1   5   7   52.00    2.03
   1   5   7   53.56    2.64
   3  -5   7  258.13    7.75
   3   5   7  246.66    6.65
   3   5   7  251.85    7.51
   5  -5   7    1.22    1.19
   5   5   7    3.30    0.82
   5   5   7    3.93    1.23
   7  -5   7  140.72    5.37
   7   5   7  132.37    5.18
   7   5   7  146.07    4.57
   9  -5   7   25.71    2.63
   9   5   7   26.48    2.60
   9   5   7   27.40    2.08
  11  -5   7   36.19    3.11
  11  -5   7   33.57    3.05
  11   5   7   28.62    2.27
  11   5   7   29.88    2.79
  13  -5   7   86.17    4.52
  13  -5   7   90.57    4.50
  13   5   7   97.78    4.09
  13   5   7   94.70    4.75
  15  -5   7   21.16    2.57
  15   5   7   12.56    1.86
  15   5   7   17.16    2.59
  17  -5   7   38.16    3.45
  17   5   7   30.80    2.86
  17   5   7   27.41    3.12
  19  -5   7    6.51    2.04
  19   5   7    4.92    1.59
  19   5   7    2.51    1.74
  21  -5   7   16.64    2.70
  21   5   7   11.64    2.52
  21   5   7   12.14    2.22
  23  -5   7   10.08    2.42
  23   5   7   10.68    2.60
  23   5   7   12.01    2.39
  36   6  -7    0.11    1.75
  36   6  -7    2.80    1.99
  34   6  -7    1.30    1.90
  34   6  -7    1.99    1.70
  32   6  -7    1.79    1.70
  32   6  -7    0.71    1.73
  30   6  -7    2.49    1.64
  30   6  -7    1.77    1.74
  28   6  -7    5.39    1.63
  28   6  -7    4.30    1.73
  26  -6  -7   27.81    1.54
  26   6  -7   27.65    2.94
  24  -6  -7   39.70    1.69
  24   6  -7   40.44    3.34
  22  -6  -7   35.58    1.43
 -22   6   7   31.95    1.80
  22   6  -7   36.15    3.02
  20  -6  -7    1.01    0.42
 -20   6   7    0.02    0.50
  20   6  -7    0.80    1.14
  18  -6  -7    2.10    0.41
  18  -6  -7    0.91    0.40
 -18   6   7    2.34    0.52
  18   6  -7    0.99    1.12
  16  -6  -7    0.35    0.31
 -16  -6   7    0.64    1.19
  16   6  -7   -1.26    0.88
  14  -6  -7   18.96    0.92
 -14  -6   7   22.20    2.33
  14   6  -7   17.72    1.99
  12  -6  -7   42.30    1.55
 -12  -6   7   39.87    2.69
  12   6  -7   44.06    2.62
 -10  -6   7    3.17    1.14
  10  -6  -7    2.04    0.52
  10  -6  -7    2.45    0.70
  10   6  -7    2.46    1.08
   8  -6  -7   27.63    1.51
   8  -6  -7   29.69    1.16
   8  -6  -7   28.27    1.45
  -8  -6   7   31.39    2.32
   8   6  -7   31.67    2.45
  -6  -6   7   22.21    2.10
   6  -6  -7   25.75    1.38
   6  -6  -7   23.54    1.39
  -6   6   7   26.17    1.59
   6   6  -7   26.92    2.29
   4  -6  -7    4.01    0.75
   4  -6  -7    4.49    0.69
  -4  -6   7    3.43    1.24
  -4   6   7    2.57    0.85
   2  -6  -7   14.51    1.12
  -2  -6   7   15.83    1.89
  -2   6   7   11.20    1.06
  -2   6   7   14.31    1.48
   0  -6   7   -0.83    0.96
   0  -6  -7   -0.05    0.40
   0   6   7    0.20    0.58
   0   6   7    0.59    0.84
  -2  -6  -7   12.12    1.09
   2  -6   7    8.13    1.59
   2   6   7   15.59    1.77
   2   6   7   12.31    1.18
   4  -6   7    0.13    1.09
   4   6   7    0.14    0.64
   4   6   7    0.59    1.02
   6  -6   7   20.78    2.27
   6   6   7   23.89    1.81
   6   6   7   19.33    2.15
   8  -6   7    7.55    1.70
   8   6   7    7.79    1.22
   8   6   7    8.29    1.60
  10  -6   7    1.75    1.36
  10   6   7    4.02    1.49
  10   6   7    3.29    1.08
  12  -6   7   41.85    3.52
  12  -6   7   40.99    3.35
  12   6   7   41.76    2.72
  12   6   7   51.28    3.41
  14  -6   7   -0.95    1.29
  14  -6   7    0.18    1.41
  14   6   7    0.78    1.15
  14   6   7    0.65    1.34
  16  -6   7    1.82    1.61
  16   6   7    6.01    1.96
  16   6   7    4.01    1.50
  18  -6   7   22.12    2.89
  18   6   7   27.20    3.30
  18   6   7   20.97    2.53
  20  -6   7    8.48    2.21
  20   6   7    7.22    2.14
  20   6   7    6.67    1.90
  22  -6   7    0.95    1.83
  22   6   7    3.76    2.02
  22   6   7    1.49    1.64
  35   7  -7   21.64    3.44
  33   7  -7   10.56    2.50
  31   7  -7   11.76    2.45
  29   7  -7    8.19    2.15
  27   7  -7   56.36    4.03
  25   7  -7   -0.41    1.25
  23  -7  -7  106.15    3.33
  23   7  -7  100.34    4.95
  21  -7  -7    1.98    0.56
  21   7  -7    0.57    1.30
  19  -7  -7   28.40    1.29
  19  -7  -7   30.46    1.39
  19   7  -7   32.68    2.90
 -19   7   7   29.19    1.31
 -17  -7   7    5.59    1.60
  17  -7  -7    6.24    0.68
  17   7  -7    5.13    1.38
 -15  -7   7   30.49    2.73
  15  -7  -7   38.79    1.48
  15   7  -7   34.50    2.92
  13  -7  -7   89.31    2.77
 -13  -7   7   89.70    4.24
  13   7  -7   91.03    4.12
 -11  -7   7   41.53    2.88
  11  -7  -7   46.72    1.86
  11   7  -7   47.16    2.86
   9  -7  -7  112.79    3.04
   9  -7  -7  108.91    3.70
   9  -7  -7  112.99    3.50
  -9  -7   7  112.11    4.61
   9   7  -7  108.97    4.47
   7  -7  -7   13.28    0.94
  -7  -7   7   12.31    1.80
   7  -7  -7   11.52    1.16
   7  -7  -7   11.76    1.15
   7   7  -7   13.35    1.84
  -5  -7   7   81.78    3.88
   5  -7  -7   93.13    3.24
   5  -7  -7   88.96    3.05
   3  -7  -7   17.07    1.35
  -3  -7   7   13.61    1.84
  -3   7   7   18.51    1.75
   1  -7  -7  217.40    6.09
  -1  -7   7  226.20    7.23
  -1   7   7  228.67    6.23
  -1   7   7  224.10    6.81
  -1  -7  -7    1.58    0.60
   1  -7   7    3.05    1.27
   1   7   7    1.15    1.09
   1   7   7    1.17    0.75
  -3  -7  -7   90.27    3.22
   3  -7   7   91.38    4.15
   3   7   7   92.04    4.01
   3   7   7   86.14    3.27
   5  -7   7    7.51    1.64
   5   7   7    5.64    1.49
   5   7   7    8.86    1.24
   7  -7   7  127.89    5.28
   7   7   7  121.08    4.42
   7   7   7  136.92    5.40
   9  -7   7   21.65    2.58
   9   7   7   25.69    2.69
   9   7   7   25.38    2.11
  11  -7   7   76.56    4.25
  11   7   7   75.46    3.61
  11   7   7   88.04    4.60
  13  -7   7   72.26    4.30
  13  -7   7   66.61    3.88
  13   7   7   72.00    3.63
  13   7   7   70.44    4.29
  15  -7   7   -1.24    1.54
  15  -7   7    5.07    1.82
  15   7   7    2.16    1.38
  15   7   7    0.04    1.40
  17  -7   7   42.54    3.81
  17   7   7   42.84    4.02
  17   7   7   41.07    3.27
  19  -7   7   13.15    2.47
  19   7   7    6.81    2.24
  19   7   7   11.58    2.17
  21  -7   7   46.71    4.20
  21   7   7   47.72    4.53
  21   7   7   50.61    3.97
  32   8  -7   -0.96    1.81
  30   8  -7    1.32    1.64
  28   8  -7    3.25    1.89
  26   8  -7   10.62    2.35
  24   8  -7    4.50    1.79
  22   8  -7    2.03    1.45
  20  -8  -7    7.13    1.24
 -20  -8   7    9.03    2.11
  20   8  -7    8.78    1.91
 -18  -8   7    1.04    1.49
  18   8  -7   -1.67    1.18
 -16  -8   7    8.53    1.88
  16   8  -7    8.93    1.91
  14  -8  -7   10.77    1.07
 -14  -8   7    8.44    1.83
  14   8  -7    8.00    1.70
  12  -8  -7   64.50    2.44
 -12  -8   7   65.15    3.68
  12   8  -7   65.36    3.70
 -10  -8   7   25.85    2.66
  10  -8  -7   20.86    1.37
  10  -8  -7   17.50    1.00
  10   8  -7   19.39    2.27
   8  -8  -7   18.09    1.53
   8  -8  -7   17.61    1.09
  -8  -8   7   18.32    2.29
   8   8  -7   16.52    2.18
  -6  -8   7   28.59    2.71
   6  -8  -7   30.32    1.56
   4  -8  -7   17.08    1.46
  -4  -8   7   19.15    2.22
   4  -8  -7   16.10    1.43
  -2  -8   7    5.19    1.50
   2  -8  -7    5.48    0.95
  -2   8   7    5.83    1.27
   0  -8  -7   16.45    2.28
   0  -8   7   16.19    2.14
   0   8   7   18.98    2.03
   0   8   7   16.12    1.53
   2  -8   7   19.09    2.35
   2   8   7   17.74    1.62
   2   8   7   11.59    1.74
   4  -8   7   23.60    2.50
   4   8   7   28.52    2.66
   4   8   7   24.97    2.00
   6  -8   7    3.74    1.53
   6   8   7    1.83    1.31
   6   8   7    2.10    1.00
   8  -8   7    1.85    1.42
   8   8   7   -1.51    1.20
   8   8   7    1.45    1.07
  10  -8   7    3.81    1.57
  10   8   7    5.60    1.46
  10   8   7    1.44    1.60
  12  -8   7   20.09    2.66
  12   8   7   19.02    2.70
  12   8   7   22.46    2.31
  14  -8   7    7.11    1.99
  14  -8   7    3.34    1.86
  14   8   7    7.07    1.68
  14   8   7    7.44    2.19
  16  -8   7   -1.04    1.49
  16  -8   7    4.02    1.74
  16   8   7    0.50    1.62
  16   8   7    3.34    1.51
  18  -8   7   -3.65    1.46
  18   8   7    1.94    1.53
  18   8   7    2.40    1.88
  31   9  -7   15.24    3.08
  29   9  -7   43.67    4.12
  27   9  -7   38.31    3.95
  25   9  -7    5.24    2.02
 -23  -9   7   67.50    4.60
  23   9  -7   69.71    4.30
 -21  -9   7   23.23    3.08
  21   9  -7   21.96    2.85
 -19  -9   7   60.12    4.16
  19   9  -7   62.14    4.05
 -17  -9   7    8.29    1.96
  17   9  -7    9.15    1.93
 -15  -9   7  152.87    6.22
  15   9  -7  145.13    6.09
 -13  -9   7   56.88    3.67
  13   9  -7   53.21    3.59
  11  -9  -7    5.20    0.67
 -11  -9   7    4.40    1.65
  11   9  -7    5.44    1.76
   9  -9  -7   34.26    1.56
  -9  -9   7   36.44    3.16
   9   9  -7   34.95    3.18
   7  -9  -7    0.46    0.53
  -7  -9   7   -0.92    1.13
  -5  -9   7   75.30    4.04
   5  -9  -7   71.70    2.78
   3  -9  -7   23.00    1.68
  -3  -9   7   26.34    2.68
  -1  -9   7   63.84    3.75
   1  -9   7    2.79    1.44
   1   9   7    2.56    1.27
   1   9   7    4.40    1.12
   3  -9   7    0.09    1.25
   3   9   7    0.60    0.96
   3   9   7   -0.88    1.13
   5  -9   7    2.98    1.54
   5   9   7    4.70    1.28
   5   9   7    2.94    1.63
   7  -9   7   61.76    3.91
   7   9   7   66.95    3.34
   7   9   7   64.36    4.04
   9  -9   7   18.29    2.53
   9   9   7   18.49    2.66
   9   9   7   19.14    2.10
  11  -9   7   54.86    3.93
  11   9   7   59.85    4.24
  11   9   7   55.87    3.32
  13  -9   7   14.80    2.59
  13   9   7   17.38    2.66
  13   9   7   13.59    2.08
  15  -9   7    1.17    1.86
  15  -9   7    2.79    1.76
  15   9   7   -0.05    1.68
  17  -9   7    5.40    2.25
  17  -9   7    5.46    2.01
  17   9   7    2.01    2.08
  28  10  -7   -0.96    1.90
 -26 -10   7    2.26    2.21
  26  10  -7    2.08    1.98
 -24 -10   7    1.71    2.08
  24  10  -7   -0.28    1.71
 -22 -10   7    9.50    2.45
  22  10  -7   11.98    2.34
 -20 -10   7   33.33    3.58
  20  10  -7   35.86    3.58
 -18 -10   7    0.55    1.71
  18  10  -7    0.40    1.64
 -16 -10   7    1.00    1.51
  16  10  -7    1.13    1.66
 -14 -10   7    2.86    1.65
  14  10  -7    3.48    1.66
 -12 -10   7    1.36    1.48
  12  10  -7    0.98    1.52
 -10 -10   7   24.33    2.83
  10  10  -7   28.80    3.09
  -8 -10   7   13.98    2.23
   6 -10  -7    5.34    0.98
  -6 -10   7    3.97    1.63
   4 -10  -7    2.22    0.85
  -4 -10   7    2.27    1.56
   2 -10  -7   -0.84    0.67
  -2 -10   7    1.67    1.51
   0 -10   7    2.18    1.50
   0 -10  -7    1.12    0.95
   2 -10   7   -0.06    1.29
   4 -10   7    1.34    1.42
   4  10   7   -1.12    1.25
   4  10   7   -1.19    1.02
   6 -10   7   -0.36    1.25
   6  10   7   -0.12    1.11
   6  10   7   -0.10    1.37
   8 -10   7   -0.86    1.44
   8  10   7   -2.64    1.11
   8  10   7   -1.52    1.46
  10 -10   7   10.06    2.20
  10  10   7   11.60    2.51
  12 -10   7    1.32    1.65
  12  10   7    3.50    1.99
  14 -10   7    5.85    2.06
  14  10   7   10.98    2.73
 -25 -11   7   -2.18    1.91
  25  11  -7    0.19    1.82
 -23 -11   7   28.02    3.69
  23  11  -7   36.74    4.02
 -21 -11   7    1.20    1.84
  21  11  -7   -0.91    1.87
 -19 -11   7   49.52    4.27
  19  11  -7   49.44    4.31
 -17 -11   7    2.12    1.78
  17  11  -7    4.15    1.94
 -15 -11   7   48.50    4.13
  15  11  -7   41.74    3.77
 -13 -11   7    2.94    1.69
  13  11  -7    0.96    1.63
 -11 -11   7    3.76    1.67
  11  11  -7    3.97    1.71
  -9 -11   7   22.56    2.85
  -7 -11   7    0.08    1.39
  -5 -11   7   43.91    3.75
  -3 -11   7    8.29    1.96
  -1 -11   7   36.09    3.39
   1 -11   7   -1.64    1.31
  -1 -11  -7   -0.88    1.03
  -3 -11  -7    3.99    1.43
   3 -11   7    5.53    1.87
   5 -11   7    7.30    2.04
   7 -11   7   16.51    2.62
   9 -11   7   16.17    2.62
   9  11   7   16.12    2.73
  11 -11   7   10.03    2.43
  11  11   7   14.49    2.83
 -20 -12   7    6.16    2.41
  20  12  -7   10.83    2.69
 -18 -12   7   11.78    2.65
  18  12  -7    7.46    2.37
 -16 -12   7   18.64    2.91
  16  12  -7   23.68    3.38
 -14 -12   7   10.99    2.56
  14  12  -7   12.10    2.66
 -12 -12   7    1.90    1.78
 -10 -12   7    3.72    1.81
  -8 -12   7   13.70    2.50
  -6 -12   7   33.77    3.44
  -4 -12   7    5.77    1.96
  -2 -12   7   -0.11    1.50
   0 -12   7   -0.34    1.40
   2 -12   7    1.02    1.58
   4 -12   7   -0.22    1.63
   6 -12   7   25.51    3.21
 -11 -13   7   12.48    2.61
  -9 -13   7    4.42    2.06
  -7 -13   7   16.50    2.79
  -5 -13   7   12.05    2.51
  -3 -13   7   -1.37    1.67
  40   0  -8   15.17    2.91
  40   0  -8   12.49    2.17
  38   0  -8    6.90    1.75
  38   0  -8    8.99    2.38
  36   0  -8    8.75    1.77
  36   0  -8    5.89    2.19
  34   0  -8  151.17    6.48
  34   0  -8  149.11    5.64
  32   0  -8   23.88    2.73
  32   0  -8   24.03    2.29
  30   0  -8  361.80   10.92
  30   0  -8  357.91   10.05
  28   0  -8    4.35    1.46
  28   0  -8    3.41    1.03
  26   0  -8    3.09    0.97
  26   0  -8    3.43    1.18
  24   0  -8   10.89    1.27
 -24   0   8   10.85    1.44
  24   0  -8   11.90    1.75
  22   0  -8  191.86    6.03
  22   0  -8  183.68    5.38
 -22   0   8  183.93    5.36
 -20   0   8  418.16   10.40
  20   0  -8  406.19   10.94
  20   0  -8  428.91   10.46
 -18   0   8  118.90    3.56
  18   0  -8  118.21    4.04
 -16   0   8   31.66    1.47
  16   0  -8   28.27    1.74
  14   0  -8   47.94    2.05
 -14   0   8   49.13    1.80
 -12   0   8  118.97    3.60
 -12   0   8  120.76    3.52
  12   0  -8  119.38    3.51
 -10   0   8   69.61    2.22
  10   0  -8   70.60    2.37
  10   0  -8   66.53    2.21
 -10   0   8   64.17    2.38
  -8   0   8  636.45   14.79
  -8   0   8  641.79   15.15
   8   0  -8  634.34   14.79
   8   0  -8  640.47   15.10
   6   0  -8   28.01    1.51
  -6   0   8   27.62    1.22
   6   0  -8   28.46    1.24
  -6   0   8   30.32    1.62
  -4   0   8   81.17    2.43
   4   0  -8   82.32    2.88
  -4   0   8   84.10    2.97
  -2   0   8   25.35    1.63
   2   0  -8   25.49    1.62
  -2   0   8   25.15    1.70
   0   0   8  140.09    4.69
   0   0  -8  152.32    4.65
   0   0   8  147.63    4.68
   2   0   8   87.70    3.50
  -2   0  -8   78.66    3.60
   2   0   8   81.14    3.46
   4   0   8   43.10    2.56
   4   0   8   45.71    2.64
   6   0   8  312.19    8.91
   8   0   8    1.68    1.07
  10   0   8   74.27    3.64
  12   0   8   32.82    2.83
  14   0   8   49.56    3.35
  16   0   8    7.50    1.90
  18   0   8   38.02    3.49
  20   0   8   21.89    2.84
  22   0   8   54.05    4.49
  24   0   8    3.49    2.00
  39  -1  -8    1.71    1.40
  39  -1  -8   -0.30    1.75
  39   1  -8   -2.70    1.80
  39   1  -8    0.43    1.41
  37  -1  -8   -2.08    0.89
  37  -1  -8   -0.19    1.72
  37   1  -8   -1.04    1.20
  37   1  -8   -1.18    1.50
  35  -1  -8    5.87    1.99
  35  -1  -8    5.23    1.46
  35   1  -8    2.92    1.88
  35   1  -8    4.54    1.50
  33  -1  -8    2.05    1.43
  33  -1  -8   -0.87    0.90
  33   1  -8    2.34    1.58
  33   1  -8    0.41    1.12
  31  -1  -8   14.88    1.70
  31  -1  -8   13.92    2.17
  31   1  -8   13.62    1.82
  31   1  -8   12.16    2.13
  29  -1  -8    0.77    1.36
  29  -1  -8    1.05    0.83
  29   1  -8    3.43    1.13
  29   1  -8    3.59    1.50
  27  -1  -8    0.82    0.74
  27  -1  -8   -0.23    1.04
  27   1  -8    2.70    1.00
  27   1  -8    0.88    1.16
  25  -1  -8    2.01    1.09
  25  -1  -8    0.94    0.68
  25   1  -8    2.80    1.06
 -25   1   8    1.90    0.78
  25   1  -8    2.52    0.92
  23  -1  -8    4.50    1.20
  23  -1  -8    2.87    0.74
  23   1  -8    2.61    1.06
 -23   1   8    3.42    0.78
  23   1  -8    2.02    0.82
  21  -1  -8   63.05    2.99
 -21  -1   8   69.21    2.74
  21  -1  -8   62.41    2.33
  21   1  -8   66.95    3.03
 -21   1   8   65.78    2.37
  21   1  -8   67.45    2.73
  19  -1  -8    2.29    0.58
 -19  -1   8    0.97    0.68
  19  -1  -8    2.77    0.94
 -19   1   8    2.39    0.58
  19   1  -8    1.90    0.92
  19   1  -8    2.87    0.80
  17  -1  -8   12.69    1.31
 -17  -1   8   10.31    1.09
 -17  -1   8   12.01    1.27
  17   1  -8   11.33    1.33
 -17   1   8   11.42    0.86
 -15  -1   8  112.50    3.49
 -15  -1   8  114.96    3.72
  15  -1  -8  114.09    3.57
 -15   1   8  113.34    3.05
  15   1  -8  111.64    3.70
 -13  -1   8    0.96    0.62
  13  -1  -8    0.36    0.55
 -13  -1   8   -0.92    0.70
 -13   1   8   -0.25    0.53
 -13   1   8    0.25    0.36
  13   1  -8    0.32    0.67
 -11  -1   8    4.25    0.94
  11  -1  -8    3.67    0.58
 -11  -1   8    4.06    0.76
  11   1  -8    3.43    0.76
 -11   1   8    3.01    0.64
  -9  -1   8    1.23    0.58
  -9  -1   8   -0.36    0.64
   9  -1  -8   -0.27    0.41
   9  -1  -8   -0.37    0.34
  -9   1   8    0.55    0.52
   9   1  -8    1.25    0.65
   9   1  -8    0.03    0.55
  -9   1   8    0.53    0.36
  -7  -1   8   49.31    2.24
   7  -1  -8   49.49    1.88
   7  -1  -8   51.33    1.49
  -7  -1   8   52.47    1.93
  -7   1   8   53.49    1.50
  -7   1   8   50.51    1.94
   7   1  -8   50.08    1.94
   7   1  -8   54.41    2.20
  -5  -1   8   31.10    1.84
   5  -1  -8   27.95    1.48
  -5  -1   8   30.12    1.43
   5   1  -8   28.06    1.68
  -5   1   8   28.62    0.98
  -5   1   8   28.33    1.52
  -5   1   8   25.73    1.48
  -3  -1   8   45.72    2.28
   3  -1  -8   50.77    2.07
  -3  -1   8   47.51    1.90
  -3   1   8   44.74    2.13
  -3   1   8   48.49    2.10
   3   1  -8   47.49    2.18
  -1  -1   8    2.28    0.91
   1  -1  -8    2.35    0.79
   1   1  -8    3.66    0.95
  -1   1   8    4.19    0.96
  -1   1   8    3.42    0.97
   1  -1   8    1.49    1.03
  -1  -1  -8    2.30    0.85
   1   1   8    0.18    0.97
  -1   1  -8    2.59    0.94
   1   1   8    2.78    1.11
   3  -1   8    4.86    1.21
   3  -1   8    2.47    1.02
   3   1   8    2.40    0.96
   5  -1   8   -0.32    0.82
   5  -1   8    1.46    1.03
   5   1   8    0.59    0.94
   7  -1   8    8.89    1.57
   7  -1   8    7.37    1.52
   7   1   8    9.68    1.51
   9  -1   8    4.41    1.28
   9   1   8    2.33    1.14
  11  -1   8    0.68    1.21
  11   1   8    1.51    1.13
  13  -1   8   -0.03    1.14
  13   1   8   -0.17    1.06
  15  -1   8    3.34    1.48
  15   1   8    1.88    1.52
  17  -1   8   10.24    2.06
  17   1   8   12.00    2.13
  19  -1   8    1.57    1.58
  19   1   8    2.04    1.59
  21  -1   8    2.50    1.78
  21   1   8    1.75    1.77
  23  -1   8    4.87    2.03
  23   1   8    1.35    1.65
  23   1   8    2.17    1.85
  25  -1   8    0.93    1.67
  25   1   8    1.14    1.84
  25   1   8   -0.60    1.84
  40  -2  -8    1.15    1.98
  40   2  -8    2.17    1.70
  40   2  -8   -0.63    1.86
  38  -2  -8    2.97    1.49
  38  -2  -8    7.48    2.26
  38   2  -8    4.91    1.69
  38   2  -8    5.07    2.13
  36  -2  -8   17.09    2.07
  36  -2  -8   12.16    2.48
  36   2  -8   15.62    2.33
  36   2  -8   11.07    2.42
  34  -2  -8   52.28    2.90
  34  -2  -8   51.50    3.73
  34   2  -8   48.06    3.32
  34   2  -8   50.43    3.73
  32  -2  -8   20.26    1.92
  32   2  -8   18.77    2.60
  32   2  -8   20.47    2.29
  30  -2  -8   58.52    2.78
  30   2  -8   60.55    3.68
  30   2  -8   64.13    3.42
  28  -2  -8   18.03    1.61
  28   2  -8   19.19    2.28
  28   2  -8   19.01    2.09
  26  -2  -8  121.10    3.88
  26   2  -8  115.10    4.49
 -26   2   8  115.40    3.89
  26   2  -8  129.48    5.09
  24  -2  -8    1.22    0.59
 -24   2   8    0.66    0.64
  24   2  -8    0.15    0.79
  24   2  -8    0.61    0.91
  22  -2  -8  151.39    4.32
  22   2  -8  159.48    5.48
  22   2  -8  158.74    5.14
 -22   2   8  158.43    4.37
  20  -2  -8   75.86    2.37
  20   2  -8   77.55    3.37
  20   2  -8   78.67    3.07
 -20   2   8   77.15    2.41
 -18  -2   8   84.48    3.14
  18   2  -8   81.08    3.35
 -18   2   8   83.39    2.35
 -16  -2   8  378.60    9.91
 -16  -2   8  383.06    9.76
 -16   2   8  392.72    8.81
  16   2  -8  367.72    9.94
 -14  -2   8   30.23    1.77
 -14  -2   8   29.52    1.61
 -14  -2   8   27.15    1.90
  14   2  -8   28.02    1.83
 -14   2   8   28.58    0.82
 -14   2   8   29.53    1.26
 -12  -2   8   92.89    3.13
 -12  -2   8   93.72    3.39
 -12   2   8   90.69    2.49
 -12   2   8   89.80    2.25
  12   2  -8   89.11    3.17
  10  -2  -8   55.20    1.76
 -10  -2   8   56.73    2.56
  10  -2  -8   59.13    1.74
 -10  -2   8   59.31    2.31
 -10   2   8   57.17    1.76
  10   2  -8   56.44    2.45
 -10   2   8   55.22    1.68
  10   2  -8   59.14    2.38
  -8  -2   8  372.98    9.31
   8  -2  -8  375.23    8.50
   8  -2  -8  369.56    8.82
  -8  -2   8  372.36    9.62
  -8   2   8  361.38    8.85
   8   2  -8  380.20    9.56
   8   2  -8  370.76    9.35
  -8   2   8  369.94    8.85
  -6  -2   8   26.35    1.51
   6  -2  -8   23.64    1.24
  -6  -2   8   24.49    1.83
  -6   2   8   24.72    1.33
   6   2  -8   24.12    1.55
   6   2  -8   24.94    1.65
  -6   2   8   23.47    1.30
   4  -2  -8  447.74   10.94
  -4  -2   8  430.16   11.43
  -4  -2   8  446.99   11.08
   4  -2  -8  473.11   11.01
   4   2  -8  449.88   11.37
  -4   2   8  451.27   10.98
  -4   2   8  447.01   11.02
  -2  -2   8    5.85    1.24
  -2  -2   8    4.31    0.87
   2  -2  -8    6.31    0.95
   2  -2  -8    3.10    0.76
  -2   2   8    4.07    0.92
   2   2  -8    6.24    1.09
   0  -2   8  175.41    5.58
   0  -2  -8  179.76    5.23
   0  -2  -8  171.69    5.19
   0   2  -8  175.16    5.46
   0   2   8  171.19    5.28
   2  -2   8   15.57    1.70
  -2  -2  -8   19.73    1.75
   2   2   8   22.21    1.88
   4  -2   8  121.91    4.65
   4  -2   8  124.33    4.59
   4   2   8  130.00    4.48
   6  -2   8  162.40    5.62
   6  -2   8  167.43    5.78
   6   2   8  166.13    5.59
   8  -2   8   13.54    1.81
   8  -2   8   16.76    2.13
   8   2   8   17.47    1.96
  10  -2   8   41.53    2.93
  10   2   8   43.83    2.96
  12  -2   8   21.18    2.35
  12   2   8   18.07    2.25
  14  -2   8  112.65    5.22
  14   2   8  131.20    5.39
  16  -2   8    8.23    1.85
  16   2   8    8.01    1.94
  16   2   8   11.37    1.91
  18  -2   8   42.46    3.75
  18   2   8   50.44    3.77
  18   2   8   41.42    3.44
  20  -2   8   13.85    2.45
  20   2   8    9.73    2.16
  20   2   8   13.62    2.55
  22  -2   8   14.28    2.61
  22   2   8   15.05    2.61
  22   2   8   17.05    2.73
  24  -2   8    9.62    2.57
  24   2   8   12.48    2.59
  24   2   8    8.90    2.50
  39  -3  -8    1.68    1.93
  39   3  -8    0.44    1.78
  39   3  -8    4.62    1.88
  37   3  -8    0.40    1.55
  37   3  -8    0.17    1.74
  35  -3  -8    5.40    1.32
  35   3  -8    6.38    2.08
  35   3  -8    5.86    1.77
  33  -3  -8    2.81    1.00
  33   3  -8    1.68    1.37
  33   3  -8    2.27    1.68
  31  -3  -8   13.82    1.54
  31   3  -8   11.24    2.17
  31   3  -8   14.35    1.99
  29  -3  -8   58.22    2.55
  29   3  -8   62.93    3.78
  29   3  -8   54.40    3.31
  27  -3  -8    2.48    0.75
  27   3  -8    2.91    1.23
  27   3  -8    3.58    1.38
  25  -3  -8    6.36    0.85
  25   3  -8    5.88    1.33
  25   3  -8    3.21    1.25
  23  -3  -8    6.42    0.74
  23   3  -8    6.36    1.40
 -23   3   8    6.87    1.06
  23   3  -8    5.81    1.25
  21  -3  -8    7.53    0.69
  21   3  -8    4.98    1.20
  19  -3  -8   47.73    1.44
  19   3  -8   51.62    2.76
  17   3  -8    0.45    0.77
 -15  -3   8    0.30    0.89
 -15  -3   8    1.39    0.71
  15   3  -8    0.45    0.78
 -13  -3   8    3.79    1.21
 -13  -3   8    3.27    0.84
  13   3  -8    3.54    1.00
 -11  -3   8   85.92    3.10
 -11  -3   8   72.93    3.20
  11   3  -8   85.74    3.15
 -11   3   8   80.78    2.04
   9  -3  -8   13.44    0.66
  -9  -3   8   12.45    1.22
  -9  -3   8   13.29    1.48
   9   3  -8   13.30    1.35
   9   3  -8   11.30    1.23
  -9   3   8   13.51    0.82
  -7  -3   8    9.67    1.41
   7  -3  -8    9.41    0.74
   7  -3  -8    9.26    0.44
   7  -3  -8   11.31    0.80
  -7  -3   8   10.07    1.17
   7   3  -8   10.65    1.31
   7   3  -8    7.68    1.10
  -7   3   8    9.89    0.88
   5  -3  -8    6.04    0.81
   5  -3  -8    5.73    0.73
  -5  -3   8    9.34    1.11
  -5  -3   8    7.88    1.32
   5   3  -8    6.12    1.09
  -5   3   8    6.06    0.85
   5   3  -8    6.78    1.11
  -3  -3   8   96.89    3.43
   3  -3  -8   99.59    3.26
   3  -3  -8  100.42    3.22
  -3  -3   8  103.47    3.87
   3   3  -8  104.72    3.74
  -3   3   8  101.04    2.49
  -3   3   8   99.68    3.34
  -1  -3   8    9.61    1.54
   1  -3  -8    8.36    1.17
  -1  -3   8    7.90    1.08
   1  -3  -8    9.55    1.22
  -1   3   8    7.72    0.64
  -1   3   8    8.61    1.15
   1  -3   8    8.11    1.38
  -1  -3  -8    9.94    1.28
   1   3   8    8.35    0.80
   1   3   8    8.64    1.30
   3  -3   8   24.05    2.23
   3   3   8   18.01    1.74
   3   3   8   16.19    1.23
   5  -3   8    3.26    1.23
   5   3   8    1.82    0.72
   5   3   8    3.05    1.16
   7  -3   8   35.56    2.57
   7  -3   8   37.98    2.76
   7   3   8   36.69    2.45
   7   3   8   38.21    2.07
   9  -3   8    4.09    1.42
   9  -3   8    2.53    1.28
   9   3   8    0.37    1.05
   9   3   8    0.40    0.83
  11  -3   8   12.27    1.92
  11  -3   8   15.12    2.04
  11   3   8   15.43    2.09
  11   3   8   17.57    1.85
  13  -3   8    4.95    1.64
  13   3   8    2.38    1.13
  13   3   8    5.93    1.68
  15  -3   8    4.60    1.60
  15   3   8    3.89    1.38
  15   3   8    0.72    1.48
  17  -3   8    1.46    1.48
  17   3   8    0.33    1.45
  17   3   8    0.26    1.13
  19  -3   8    0.60    1.43
  19   3   8    1.09    1.43
  19   3   8    3.59    1.83
  21  -3   8   12.50    2.53
  21   3   8    8.42    2.18
  21   3   8   10.48    2.16
  23  -3   8    4.30    1.95
  23   3   8    2.84    1.85
  23   3   8    0.65    1.68
  38   4  -8   32.44    3.64
  38   4  -8   33.65    3.88
  36   4  -8   44.68    3.94
  36   4  -8   39.35    3.91
  34   4  -8   20.00    2.91
  34   4  -8   16.59    2.54
  32  -4  -8    3.23    0.97
  32   4  -8    2.85    1.48
  32   4  -8    4.07    1.77
  30  -4  -8   40.75    2.12
  30   4  -8   51.78    3.66
  30   4  -8   43.03    3.20
  28  -4  -8   37.99    1.88
  28   4  -8   44.20    3.52
  28   4  -8   41.67    2.89
  26  -4  -8   58.89    2.21
  26   4  -8   58.17    3.57
  26   4  -8   61.16    3.33
  24  -4  -8    0.63    0.44
  24   4  -8    0.24    1.05
  24   4  -8   -1.46    0.88
 -24   4   8   -0.52    0.67
  22  -4  -8  140.83    3.65
  22   4  -8  133.35    5.14
 -22   4   8  142.46    4.22
  20  -4  -8   18.86    0.71
 -20   4   8   17.46    1.18
  20   4  -8   19.34    2.05
  18   4  -8    3.68    1.04
 -18   4   8    4.18    0.59
 -16  -4   8   67.22    3.27
  16   4  -8   65.62    3.09
 -14  -4   8   10.76    1.58
  14   4  -8    8.00    1.24
 -12  -4   8  373.58   10.25
  12   4  -8  382.99   10.11
 -10  -4   8    0.51    1.10
  10  -4  -8    3.43    0.50
  10   4  -8    1.94    0.94
 -10   4   8    2.78    0.47
   8  -4  -8  225.61    5.69
   8  -4  -8  225.43    5.42
   8  -4  -8  227.36    5.50
  -8  -4   8  226.75    6.79
  -8   4   8  217.24    5.69
   8   4  -8  225.05    6.54
   6  -4  -8  117.78    3.30
   6  -4  -8  116.96    3.47
  -6  -4   8  114.27    4.30
   6  -4  -8  115.92    2.96
   6   4  -8  113.29    4.08
  -6   4   8  116.61    3.51
  -4  -4   8   98.48    3.94
   4  -4  -8  102.32    3.33
   4  -4  -8   99.40    2.63
   4  -4  -8  103.28    3.21
  -4   4   8  107.81    3.40
   2  -4  -8   68.30    2.66
  -2  -4   8   66.41    3.18
   2  -4  -8   70.29    2.59
  -2   4   8   66.09    2.00
  -2   4   8   68.86    2.75
   0  -4   8  249.39    7.67
   0  -4  -8  256.81    7.11
   0   4   8  264.25    6.44
   0   4   8  262.09    7.32
   2  -4   8   59.38    3.07
   2   4   8   58.21    2.81
   2   4   8   51.58    2.05
   4  -4   8   83.07    3.86
   4   4   8   92.43    3.04
   4   4   8   83.09    3.70
   6  -4   8    4.92    1.34
   6   4   8    6.33    1.35
   6   4   8    5.46    0.95
   8  -4   8    4.70    1.59
   8  -4   8    6.16    1.51
   8   4   8    4.07    0.98
   8   4   8    3.49    1.26
  10  -4   8   33.95    3.01
  10  -4   8   32.86    2.91
  10   4   8   28.78    2.27
  10   4   8   35.52    2.94
  12  -4   8   -2.39    1.12
  12  -4   8    1.40    1.35
  12   4   8    0.65    0.96
  12   4   8   -0.02    1.17
  14  -4   8   91.70    4.59
  14   4   8   88.89    4.59
  14   4   8   82.41    3.96
  16  -4   8   -1.46    1.34
  16   4   8    0.00    1.41
  16   4   8    0.73    1.24
  18  -4   8   49.47    4.05
  18   4   8   53.58    3.60
  18   4   8   54.68    3.92
  20  -4   8    0.89    1.66
  20   4   8    3.55    1.97
  20   4   8    0.46    1.36
  22  -4   8   12.31    2.59
  22   4   8    8.85    2.39
  22   4   8   12.59    2.48
  37   5  -8    8.53    2.45
  37   5  -8    2.74    1.97
  35   5  -8   -0.20    1.84
  35   5  -8    1.68    1.63
  33   5  -8    0.16    1.27
  33   5  -8   -0.58    1.58
  31   5  -8    1.67    1.40
  31   5  -8    0.41    1.23
  29  -5  -8   12.58    1.19
  29   5  -8    9.66    2.00
  29   5  -8   10.72    1.98
  27  -5  -8   -0.01    0.53
  27   5  -8    1.42    1.14
  27   5  -8    0.90    1.23
  25  -5  -8    0.40    0.46
  25   5  -8    1.80    1.31
 -25   5   8    0.57    0.81
  23  -5  -8   -0.28    0.31
  23   5  -8   -0.54    1.09
 -23   5   8   -0.22    0.58
  21  -5  -8    6.21    0.46
  21   5  -8    8.52    1.55
 -21   5   8    7.40    0.88
 -19   5   8    0.70    0.43
  19   5  -8    0.96    1.08
 -17  -5   8   41.52    2.82
  17   5  -8   42.03    2.71
 -15  -5   8   30.65    2.54
  15   5  -8   27.30    2.23
  13  -5  -8    6.04    0.45
 -13  -5   8    5.83    1.42
  13   5  -8    5.36    1.17
  11  -5  -8   18.59    0.89
 -11  -5   8   15.95    1.81
  11   5  -8   16.39    1.68
  -9  -5   8    0.55    0.96
   9  -5  -8   -0.05    0.36
   9  -5  -8   -0.34    0.38
  -9   5   8   -0.99    0.43
   9   5  -8    1.01    0.96
   7  -5  -8    0.07    0.37
   7  -5  -8   -0.27    0.39
   7  -5  -8    0.48    0.38
  -7  -5   8    0.99    1.10
   7   5  -8    0.49    0.80
  -7   5   8    0.62    0.56
   5  -5  -8    5.56    0.82
   5  -5  -8    3.98    0.67
  -5  -5   8    4.76    1.24
   5  -5  -8    3.30    0.51
  -5   5   8    5.92    0.93
  -3  -5   8    3.07    1.17
   3  -5  -8    4.82    0.57
   3  -5  -8    5.29    0.89
  -3   5   8    4.78    0.64
  -3   5   8    5.64    0.99
  -1  -5   8   73.10    3.49
   1  -5  -8   70.23    2.23
  -1   5   8   71.96    3.04
  -1   5   8   70.85    2.31
   1  -5   8   13.03    1.73
   1   5   8   15.32    1.73
   1   5   8   12.60    1.06
   3  -5   8    1.30    1.13
   3   5   8    0.56    0.93
   3   5   8   -0.10    0.55
   5  -5   8    1.79    1.32
   5   5   8    2.59    0.78
   5   5   8    1.51    1.08
   7  -5   8    4.74    1.50
   7   5   8    3.58    0.95
   7   5   8    3.07    1.36
   9  -5   8   20.52    2.39
   9   5   8   27.36    1.99
   9   5   8   29.96    2.88
  11  -5   8   -1.79    1.18
  11  -5   8   -1.41    1.16
  11   5   8    0.55    1.22
  11   5   8   -0.08    0.91
  13  -5   8    6.37    1.84
  13  -5   8    7.66    1.77
  13   5   8    5.49    1.39
  13   5   8    6.65    1.83
  15  -5   8    1.00    1.58
  15   5   8   -1.60    0.96
  15   5   8    1.12    1.60
  17  -5   8    5.90    2.02
  17   5   8    5.78    2.05
  17   5   8    6.35    1.64
  19  -5   8    7.03    2.19
  19   5   8    3.22    2.03
  19   5   8    5.60    1.75
  21  -5   8    4.78    2.16
  21   5   8    9.01    2.48
  21   5   8    5.15    1.84
  36   6  -8   20.84    3.32
  36   6  -8   17.79    2.92
  34   6  -8   15.25    2.52
  34   6  -8   18.40    3.04
  32   6  -8   -0.67    1.25
  32   6  -8   -1.26    1.57
  30   6  -8   22.50    3.04
  28   6  -8    0.78    1.51
  26   6  -8  147.08    6.10
  24  -6  -8    4.34    0.56
  24   6  -8    2.48    1.43
  22  -6  -8   41.06    1.26
 -22   6   8   37.49    1.72
  22   6  -8   39.36    3.19
  20   6  -8    0.90    1.13
 -20   6   8    1.90    0.47
 -18  -6   8   53.17    3.33
  18   6  -8   57.04    3.28
  16  -6  -8   85.16    2.16
 -16  -6   8   85.21    4.07
  16   6  -8   78.73    3.78
 -14  -6   8   33.51    2.60
  14  -6  -8   28.55    1.08
  14   6  -8   22.86    2.17
 -12  -6   8  168.76    5.97
  12  -6  -8  168.38    4.94
  12  -6  -8  172.59    4.42
  12   6  -8  170.97    5.81
 -10  -6   8    3.19    1.23
  10  -6  -8    3.80    0.71
  10  -6  -8    2.09    0.57
  10   6  -8    2.16    1.13
  -8  -6   8   89.70    3.91
   8  -6  -8   87.91    2.84
   8  -6  -8   90.66    2.53
   8  -6  -8   84.35    2.84
   8   6  -8   83.17    3.78
   6  -6  -8    6.83    0.77
   6  -6  -8    6.11    0.87
  -6  -6   8    4.96    1.32
   6   6  -8    7.28    1.34
  -6   6   8    5.55    0.95
   4  -6  -8  104.57    3.51
  -4  -6   8  104.72    4.38
   4  -6  -8   96.51    3.02
  -4   6   8  102.12    3.62
   2  -6  -8   97.64    3.02
  -2  -6   8  101.18    4.31
  -2   6   8  103.18    3.14
  -2   6   8   98.58    3.72
   0  -6  -8   80.90    2.67
   0  -6   8   82.83    3.84
   0   6   8   79.37    3.43
   0   6   8   80.90    2.77
   2  -6   8   42.02    2.83
   2   6   8   43.13    1.98
   2   6   8   43.19    2.67
   4  -6   8   87.38    4.17
   4   6   8   84.99    3.12
   4   6   8   86.53    3.95
   6  -6   8   10.54    1.89
   6   6   8    8.33    1.18
   6   6   8   10.30    1.80
   8  -6   8   40.20    3.41
   8   6   8   38.39    3.21
   8   6   8   34.83    2.26
  10  -6   8   75.03    4.22
  10   6   8   75.47    4.15
  10   6   8   86.91    3.61
  12  -6   8    4.01    1.69
  12  -6   8    1.20    1.61
  12   6   8    0.32    0.95
  12   6   8    0.58    1.28
  14  -6   8   91.06    4.88
  14  -6   8  101.94    5.13
  14   6   8  102.18    5.17
  14   6   8   93.76    4.31
  16  -6   8   -1.05    1.58
  16   6   8    1.18    1.31
  16   6   8    1.39    1.59
  18  -6   8   32.40    3.49
  18   6   8   33.80    3.67
  18   6   8   31.90    3.04
  20  -6   8    3.52    2.03
  20   6   8    3.71    1.81
  20   6   8    0.77    2.04
  35   7  -8    2.39    2.12
  33   7  -8    2.21    1.96
  31   7  -8   -0.43    1.63
  29   7  -8    1.08    1.51
  27   7  -8   21.59    2.83
  25   7  -8    0.38    1.45
  23   7  -8   11.39    2.10
  21  -7  -8    3.33    0.43
  21   7  -8    3.01    1.44
 -19  -7   8    0.71    1.42
  19  -7  -8   -0.49    0.30
  19  -7  -8    0.01    0.28
  19   7  -8    0.27    1.09
 -17  -7   8    4.29    1.63
  17  -7  -8    3.73    0.48
  17   7  -8    2.97    1.39
 -15  -7   8    2.51    1.36
  15  -7  -8    4.52    0.59
  15   7  -8    4.77    1.46
 -13  -7   8   28.97    2.76
  13  -7  -8   27.86    1.31
  13   7  -8   23.98    2.41
 -11  -7   8   15.09    1.99
  11  -7  -8   14.60    1.11
  11  -7  -8   16.34    1.41
  11   7  -8   12.63    1.76
   9  -7  -8    1.34    0.38
   9  -7  -8    0.30    0.51
  -9  -7   8    0.68    1.07
   9  -7  -8   -1.09    0.45
   9   7  -8    0.73    1.01
   7  -7  -8   17.18    1.29
   7  -7  -8   16.83    1.27
   7  -7  -8   19.01    1.14
  -7  -7   8   20.37    2.28
   7   7  -8   19.35    2.10
   5  -7  -8    7.49    0.92
  -5  -7   8    8.96    1.66
  -5   7   8    7.60    1.17
  -3  -7   8   -0.19    1.11
   3  -7  -8    0.59    0.50
  -3   7   8    0.76    0.87
   1  -7  -8   14.18    1.19
  -1  -7   8   12.14    1.92
  -1   7   8   13.48    1.67
  -1   7   8   13.94    1.26
   1  -7   8   -0.96    1.02
  -1  -7  -8    1.13    0.57
   1   7   8    0.35    1.04
   1   7   8   -0.20    0.66
   3  -7   8   -0.01    1.15
   3   7   8    1.35    1.13
   3   7   8    1.93    0.80
   5  -7   8   35.98    3.05
   5   7   8   35.65    2.12
   5   7   8   36.02    2.66
   7  -7   8    0.26    1.23
   7   7   8    0.29    1.22
   7   7   8    0.19    0.81
   9  -7   8    1.83    1.46
   9   7   8    2.13    1.07
   9   7   8    0.18    1.32
  11  -7   8    2.08    1.55
  11   7   8    0.70    1.62
  11   7   8    1.15    1.12
  13  -7   8   29.11    3.16
  13  -7   8   27.15    3.07
  13   7   8   29.07    3.23
  13   7   8   26.11    2.43
  15  -7   8    8.31    2.19
  15  -7   8    1.75    1.73
  15   7   8    4.88    1.65
  15   7   8    7.58    2.16
  17  -7   8    1.58    1.77
  17   7   8    0.50    1.57
  17   7   8    3.69    1.68
  19  -7   8    6.38    2.25
  19   7   8    4.75    2.16
  19   7   8    5.04    1.90
  34   8  -8   23.09    3.38
  32   8  -8    6.84    2.31
  30   8  -8   43.71    4.13
  28   8  -8    5.42    2.05
  26   8  -8   76.69    4.64
  24   8  -8   13.41    2.21
 -22  -8   8   60.10    4.20
  22   8  -8   54.03    3.76
 -20  -8   8   25.72    3.04
  20   8  -8   23.22    2.73
 -18  -8   8   84.54    4.52
  18   8  -8   78.16    4.27
 -16  -8   8   38.37    3.27
  16   8  -8   27.31    2.72
 -14  -8   8   10.86    2.06
  14  -8  -8   13.42    1.55
  14   8  -8    9.99    1.87
 -12  -8   8  186.61    6.70
  12  -8  -8  171.73    4.97
  12   8  -8  179.10    6.52
  10  -8  -8    8.31    0.68
 -10  -8   8    8.27    1.68
  10  -8  -8    9.38    1.09
  10   8  -8    7.65    1.68
   8  -8  -8  102.84    3.58
   8  -8  -8  102.74    3.11
   8  -8  -8  106.85    3.62
  -8  -8   8  103.67    4.72
   8   8  -8  103.55    4.67
   6  -8  -8   19.40    1.53
  -6  -8   8   16.61    2.18
   6  -8  -8   17.39    1.26
   4  -8  -8   97.42    3.35
  -4  -8   8  100.43    4.56
  -2  -8   8    9.27    1.78
   2  -8  -8    9.78    1.09
  -2   8   8    6.99    1.44
   0  -8   8   26.65    2.73
   0   8   8   29.10    2.45
   0   8   8   29.69    1.90
   2  -8   8   34.91    3.05
   2   8   8   33.84    2.09
   2   8   8   35.29    2.57
   4  -8   8    6.55    1.80
   4   8   8    7.16    1.25
   4   8   8    9.38    1.81
   6  -8   8   26.08    2.91
   6   8   8   25.13    2.07
   6   8   8   25.27    2.72
   8  -8   8   47.97    3.58
   8   8   8   43.84    2.69
   8   8   8   37.08    3.35
  10  -8   8   52.07    3.83
  10   8   8   52.85    3.89
  10   8   8   59.55    3.17
  12  -8   8    7.38    2.05
  12   8   8    3.11    1.79
  12   8   8    1.21    1.26
  14  -8   8    1.46    1.68
  14  -8   8    2.64    1.65
  14   8   8    3.75    1.56
  14   8   8    0.76    1.77
  16  -8   8   -1.64    1.53
  16  -8   8    0.70    1.68
  16   8   8    1.64    1.85
  18  -8   8   49.45    4.30
  18   8   8   44.39    4.47
  31   9  -8    2.15    1.97
  29   9  -8   -2.39    1.68
  27   9  -8    0.52    1.63
 -25  -9   8    9.36    2.44
  25   9  -8    9.65    2.26
 -23  -9   8    8.06    2.31
  23   9  -8   10.21    2.18
 -21  -9   8    3.38    1.82
  21   9  -8    1.98    1.74
 -19  -9   8   11.68    2.26
  19   9  -8    9.57    2.10
 -17  -9   8    1.52    1.61
  17   9  -8   -1.00    1.46
 -15  -9   8   62.56    3.97
  15   9  -8   60.55    3.79
 -13  -9   8    0.78    1.40
  13   9  -8    0.24    1.21
 -11  -9   8   49.64    3.48
  11   9  -8   46.82    3.76
  -9  -9   8    0.09    1.27
   9  -9  -8    1.09    0.50
   9   9  -8    0.64    1.37
   7  -9  -8    0.92    0.54
  -7  -9   8    0.48    1.27
  -5  -9   8    1.20    1.40
   5  -9  -8    3.16    0.82
  -3  -9   8   -1.78    1.15
   3  -9  -8    0.39    0.57
  -1  -9   8   12.46    2.08
  -1   9   8    7.43    1.56
   1  -9   8   -0.19    1.25
   1   9   8    1.30    0.91
   1   9   8   -0.15    1.14
   3  -9   8    0.93    1.45
   3   9   8    1.47    1.33
   3   9   8    2.05    1.10
   5  -9   8    0.26    1.38
   5   9   8    0.37    1.03
   5   9   8    1.93    1.33
   7  -9   8    4.32    1.72
   7   9   8    4.66    1.77
   7   9   8    4.18    1.32
   9  -9   8    0.86    1.55
   9   9   8    0.02    1.12
   9   9   8    0.34    1.60
  11  -9   8    3.02    1.81
  11   9   8    4.52    2.38
  11   9   8    1.27    1.78
  13  -9   8   -2.19    1.40
  13   9   8   -0.23    1.84
  15  -9   8    7.04    2.16
  15  -9   8    2.20    2.04
  15   9   8    4.81    2.24
 -28 -10   8   10.00    2.75
  28  10  -8    5.87    2.50
 -26 -10   8   26.68    3.73
  26  10  -8   25.79    3.49
 -24 -10   8   32.41    3.81
  24  10  -8   27.92    3.43
 -22 -10   8    2.52    1.92
  22  10  -8   -0.53    1.63
 -20 -10   8   38.38    3.86
  20  10  -8   47.20    3.99
 -18 -10   8   71.74    4.68
  18  10  -8   77.46    4.70
 -16 -10   8   36.70    3.50
  16  10  -8   31.97    3.27
 -14 -10   8   14.48    2.46
  14  10  -8   11.69    2.25
 -12 -10   8   15.26    2.50
  12  10  -8   21.26    2.80
 -10 -10   8    2.77    1.70
  10  10  -8    3.65    1.69
  -8 -10   8   46.49    3.54
  -6 -10   8   -0.27    1.39
  -4 -10   8  108.64    5.18
   4 -10  -8  106.09    3.81
  -2 -10   8    3.21    1.56
   2 -10  -8    3.80    1.07
   0 -10   8   16.53    2.44
   2 -10   8   10.26    2.15
   2  10   8   13.20    2.17
   4 -10   8    9.52    2.09
   4  10   8    9.36    1.58
   4  10   8    9.69    2.02
   6 -10   8   32.48    3.41
   6  10   8   41.85    3.70
   8 -10   8   17.63    2.75
   8  10   8   20.02    2.92
  10 -10   8   56.61    4.09
  10  10   8   48.35    4.26
  12 -10   8    1.21    1.72
  12  10   8   -0.39    1.83
 -25 -11   8    4.51    2.18
  25  11  -8    8.60    2.55
 -23 -11   8    6.36    2.51
  23  11  -8    2.36    1.97
 -21 -11   8    2.72    2.02
  21  11  -8    0.46    1.87
 -19 -11   8   14.12    2.62
  19  11  -8    5.88    2.30
 -17 -11   8    0.13    1.74
  17  11  -8    0.52    1.81
 -15 -11   8    2.31    1.76
  15  11  -8    2.78    1.84
 -13 -11   8    0.43    1.60
  13  11  -8   -1.61    1.51
 -11 -11   8    3.41    1.82
  -9 -11   8   10.96    2.24
  -7 -11   8    3.77    1.83
  -5 -11   8    9.27    2.26
  -3 -11   8    1.47    1.61
  -1 -11   8    0.96    1.56
   1 -11   8   -1.47    1.35
   3 -11   8    9.84    2.25
   5 -11   8   13.88    2.54
   7 -11   8   11.44    2.43
   7  11   8    8.50    2.24
   9 -11   8    1.58    1.72
   9  11   8    0.88    1.90
 -20 -12   8    1.82    2.09
  20  12  -8   -0.99    1.77
 -18 -12   8    8.50    2.43
  18  12  -8    6.60    2.29
 -16 -12   8   14.53    2.74
  16  12  -8   13.64    2.73
 -14 -12   8    2.26    1.76
  14  12  -8    0.86    1.89
 -12 -12   8   30.31    3.53
 -10 -12   8    0.27    1.71
  -8 -12   8   12.31    2.44
  -6 -12   8    2.01    1.85
  -4 -12   8   45.91    3.92
  -2 -12   8    2.88    1.87
   0 -12   8   13.56    2.51
   2 -12   8    8.10    2.17
   4 -12   8   12.94    2.59
 -11 -13   8    4.50    2.04
  -9 -13   8    1.29    1.97
  -7 -13   8    2.66    2.02
  -5 -13   8   11.16    2.51
  40   0  -9    0.70    1.76
  40   0  -9    0.26    1.22
  38   0  -9    0.65    1.69
  38   0  -9   -1.69    1.02
  36   0  -9   -1.86    1.00
  36   0  -9    1.79    1.71
  34   0  -9   -0.69    0.90
  34   0  -9    1.26    1.38
  32   0  -9   -0.77    1.20
  32   0  -9    0.90    0.95
  30   0  -9   -0.81    0.81
  30   0  -9    1.97    1.37
  28   0  -9    1.53    1.10
  28   0  -9   -0.49    0.71
  26   0  -9   -0.43    0.96
  26   0  -9    0.33    0.69
  24   0  -9    0.80    0.63
 -24   0   9   -0.08    0.60
  24   0  -9    0.31    0.96
  22   0  -9    0.63    0.59
  22   0  -9    1.22    0.85
 -22   0   9    1.04    0.67
  20   0  -9   -0.20    0.75
 -20   0   9   -0.01    0.56
  18   0  -9   -0.66    0.74
 -18   0   9   -0.16    0.50
  16   0  -9    0.66    0.65
 -16   0   9   -0.73    0.47
 -14   0   9    0.05    0.67
  14   0  -9   -0.18    0.58
 -14   0   9   -0.81    0.48
  12   0  -9   -0.03    0.50
  12   0  -9    0.20    0.53
 -12   0   9   -0.56    0.47
 -12   0   9    0.31    0.66
 -10   0   9    0.75    0.49
  10   0  -9   -0.26    0.50
  10   0  -9    0.75    0.49
 -10   0   9   -0.20    0.65
  -8   0   9    0.26    0.69
   8   0  -9   -0.65    0.55
   8   0  -9   -1.43    0.41
  -8   0   9    0.13    0.42
  -6   0   9    0.00    0.42
  -6   0   9    0.42    0.74
   6   0  -9   -0.46    0.59
  -4   0   9    0.36    0.77
  -4   0   9   -0.22    0.42
   4   0  -9    0.03    0.68
   2   0  -9   -0.52    0.63
  -2   0   9   -0.68    0.71
  -2   0   9   -0.13    0.81
   0   0   9    0.93    0.97
   0   0  -9   -2.27    0.92
   0   0   9    4.32    1.28
   2   0   9   -0.47    0.94
   2   0   9    1.76    1.10
   4   0   9   -1.41    0.75
   4   0   9   -0.94    0.88
   6   0   9   -0.69    0.90
   8   0   9    1.25    1.10
  10   0   9    0.26    1.16
  12   0   9    0.33    1.18
  14   0   9    0.52    1.35
  16   0   9    1.11    1.42
  18   0   9   -0.12    1.44
  20   0   9   -0.45    1.39
  22   0   9   -1.90    1.50
  41  -1  -9   16.26    2.99
  41   1  -9   17.23    3.06
  41   1  -9   18.42    2.65
  39  -1  -9    1.77    1.82
  39  -1  -9    0.92    1.26
  39   1  -9    0.32    1.62
  39   1  -9   -0.14    1.27
  37  -1  -9   33.60    2.82
  37  -1  -9   29.97    3.52
  37   1  -9   38.95    3.23
  37   1  -9   39.26    3.90
  35  -1  -9   -0.52    0.95
  35  -1  -9   -1.03    1.41
  35   1  -9    0.19    1.56
  35   1  -9    0.84    1.15
  33  -1  -9  139.57    6.05
  33  -1  -9  143.21    5.08
  33   1  -9  139.75    6.01
  33   1  -9  145.15    5.44
  31  -1  -9    3.04    1.38
  31  -1  -9    3.63    1.09
  31   1  -9    2.34    1.48
  31   1  -9    4.36    1.26
  29  -1  -9   73.69    3.07
  29  -1  -9   72.23    3.90
  29   1  -9   69.30    3.33
  29   1  -9   78.17    3.92
  27  -1  -9    2.59    0.84
  27  -1  -9    3.57    1.31
 -27   1   9    1.32    0.87
  27   1  -9    3.53    1.27
  27   1  -9    1.82    0.94
  25  -1  -9   42.44    2.03
  25  -1  -9   46.56    2.81
  25   1  -9   43.30    2.30
  25   1  -9   41.73    2.73
 -25   1   9   39.90    2.02
  23  -1  -9  105.17    4.12
  23  -1  -9  107.48    3.39
 -23   1   9  108.22    3.39
  23   1  -9  112.18    3.81
  23   1  -9   99.71    4.14
 -21  -1   9   35.71    1.93
  21  -1  -9   31.34    2.02
  21  -1  -9   38.48    1.62
  21   1  -9   35.47    2.26
 -21   1   9   34.40    1.61
 -19  -1   9  447.72   10.88
  19  -1  -9  433.95   11.11
 -19   1   9  429.53   10.39
  19   1  -9  423.64   11.24
 -17  -1   9   71.61    2.77
 -17  -1   9   67.01    2.51
  17  -1  -9   67.76    2.67
  17   1  -9   68.27    2.82
 -17   1   9   64.73    2.10
 -15  -1   9   45.76    2.32
  15  -1  -9   50.50    2.08
 -15  -1   9   52.14    2.08
 -15  -1   9   52.24    2.23
  15   1  -9   49.17    2.26
 -15   1   9   51.69    1.69
 -15   1   9   50.24    2.01
 -13  -1   9    9.79    1.04
 -13  -1   9   10.81    1.30
  13  -1  -9    8.30    0.87
  13   1  -9    9.98    1.07
 -13   1   9   10.46    0.97
 -11  -1   9  146.21    4.17
  11  -1  -9  145.95    3.84
  11  -1  -9  142.54    3.97
 -11  -1   9  138.22    4.40
  11   1  -9  145.38    4.19
  11   1  -9  151.74    4.41
 -11   1   9  140.91    4.01
  -9  -1   9  235.90    6.55
   9  -1  -9  239.54    6.15
   9  -1  -9  239.27    5.78
  -9  -1   9  239.25    6.20
   9   1  -9  237.28    6.49
   9   1  -9  241.01    6.24
  -9   1   9  243.34    5.79
  -9   1   9  241.82    6.21
  -7  -1   9  203.64    5.34
  -7  -1   9  202.38    5.79
   7  -1  -9  204.72    5.43
   7   1  -9  204.74    5.73
   7   1  -9  203.00    5.39
  -7   1   9  193.80    5.44
  -7   1   9  203.59    4.86
  -5  -1   9  210.81    5.49
  -5  -1   9  202.56    5.96
   5  -1  -9  210.49    5.66
   5   1  -9  207.59    5.87
  -5   1   9  205.14    5.71
  -5   1   9  194.47    5.64
  -5   1   9  207.69    4.98
  -3  -1   9  142.16    4.64
   3  -1  -9  141.98    4.36
  -3  -1   9  141.59    4.13
  -3   1   9  147.30    4.47
   3   1  -9  143.99    4.55
  -3   1   9  137.58    4.39
  -1  -1   9   26.03    2.17
   1  -1  -9   28.78    1.87
  -1   1   9   29.75    2.12
  -1   1   9   37.28    2.27
   1   1  -9   31.74    2.06
   1  -1   9   87.51    3.40
   1  -1   9   74.14    3.39
   1   1   9   79.29    3.23
   1   1   9   75.66    3.29
   3  -1   9  166.67    5.55
   3  -1   9  165.97    5.67
   3   1   9  170.60    5.57
   5  -1   9    3.02    1.16
   5  -1   9    3.34    1.11
   5   1   9    2.61    1.10
   7  -1   9  154.52    5.67
   7  -1   9  147.18    5.43
   7   1   9  150.08    5.45
   9  -1   9   10.74    1.87
   9   1   9    7.37    1.54
  11  -1   9  100.79    4.66
  11   1   9   97.28    4.50
  13  -1   9    0.89    1.22
  13   1   9    0.91    1.32
  15  -1   9   35.20    3.29
  15   1   9   46.32    3.38
  17  -1   9   80.22    4.61
  17   1   9   73.57    4.56
  19  -1   9    8.86    2.24
  19   1   9    5.45    1.94
  21  -1   9   40.59    3.96
  21   1   9   33.41    3.82
  23  -1   9   34.46    3.82
  23   1   9   31.48    3.61
  23   1   9   31.92    3.77
  40  -2  -9    0.32    1.83
  40   2  -9   -0.95    1.78
  40   2  -9    0.15    1.39
  38  -2  -9    6.50    2.30
  38   2  -9   10.68    2.45
  38   2  -9    7.98    1.93
  36  -2  -9    7.56    1.48
  36  -2  -9    8.32    2.26
  36   2  -9    9.21    2.15
  36   2  -9    7.98    1.83
  34  -2  -9    7.44    1.39
  34  -2  -9    7.38    1.96
  34   2  -9    4.85    1.95
  34   2  -9    5.56    1.59
  32  -2  -9   22.72    1.96
  32  -2  -9   19.11    2.53
  32   2  -9   26.01    2.91
  32   2  -9   24.95    2.48
  30  -2  -9    0.69    0.73
  30   2  -9    0.67    0.99
  30   2  -9    1.22    1.30
  28  -2  -9   16.87    1.50
  28   2  -9   19.40    2.03
 -28   2   9   15.53    1.52
  28   2  -9   14.82    2.07
  26  -2  -9    2.45    0.69
  26   2  -9    1.50    0.99
  26   2  -9    2.24    1.11
 -26   2   9    0.54    0.67
  24  -2  -9   38.91    1.72
  24   2  -9   42.18    2.31
  24   2  -9   38.42    2.55
 -24   2   9   41.27    1.81
  22  -2  -9    0.56    0.43
 -22   2   9    0.85    0.50
  22   2  -9    0.79    0.97
 -20   2   9    0.57    0.41
  20   2  -9    1.54    0.92
 -18  -2   9   25.58    1.72
 -18   2   9   26.78    1.00
  18   2  -9   23.42    1.92
 -16  -2   9   -0.35    0.84
 -16  -2   9    1.44    0.80
 -16  -2   9   -1.15    0.58
  16   2  -9    0.65    0.80
 -16   2   9    0.52    0.26
 -16   2   9    0.68    0.51
 -14  -2   9   90.86    3.22
  14  -2  -9   91.26    2.89
 -14  -2   9   95.15    3.53
  14   2  -9   92.41    3.34
 -14   2   9   95.16    2.34
 -14   2   9   91.65    2.67
  12  -2  -9   35.93    1.42
 -12  -2   9   34.54    1.86
  12   2  -9   33.41    1.88
 -12   2   9   36.30    1.22
 -12   2   9   34.73    1.35
 -10  -2   9    2.70    0.89
 -10  -2   9    2.93    0.78
  10  -2  -9    3.99    0.55
  10  -2  -9    2.98    0.42
  10   2  -9    3.41    0.85
 -10   2   9    4.20    0.62
  10   2  -9    3.91    0.93
 -10   2   9    3.42    0.57
  -8  -2   9    6.00    0.93
  -8  -2   9    7.24    1.24
   8  -2  -9    7.75    0.80
  -8   2   9    6.33    0.78
  -8   2   9    5.57    0.75
   8   2  -9    7.15    1.10
   8   2  -9    7.66    1.05
   6  -2  -9  111.37    3.34
  -6  -2   9  108.25    3.50
  -6  -2   9  105.82    3.86
  -6   2   9  112.69    3.40
   6   2  -9  116.04    3.84
   6   2  -9  105.74    3.52
  -6   2   9  108.49    3.38
   4  -2  -9    4.94    0.86
  -4  -2   9    4.23    1.04
  -4  -2   9    5.28    0.86
  -4   2   9    4.69    0.92
   4   2  -9    8.69    1.30
  -4   2   9    3.73    0.86
  -4   2   9    5.97    0.42
   2  -2  -9    4.70    0.97
  -2  -2   9    4.32    1.31
  -2  -2   9    4.20    0.87
   2  -2  -9    4.25    0.93
  -2   2   9    6.11    1.04
   0  -2  -9   29.69    1.91
   0  -2   9   29.37    2.20
   0   2   9   30.82    2.02
   2  -2   9   27.94    2.38
   2   2   9   27.15    2.04
   4  -2   9    2.30    1.04
   4  -2   9    2.85    1.11
   4   2   9    3.77    1.15
   6  -2   9    4.46    1.30
   6  -2   9    3.68    1.41
   6   2   9    2.32    1.08
   8  -2   9   31.41    2.74
   8  -2   9   42.96    2.96
   8   2   9   41.89    2.83
  10  -2   9   -0.52    1.09
  10   2   9    0.05    1.19
  12  -2   9    1.06    1.40
  12   2   9    2.65    1.48
  14  -2   9   14.07    2.35
  14   2   9    6.98    1.78
  16  -2   9    1.21    1.41
  16   2   9   -0.66    1.28
  16   2   9    0.34    1.23
  18  -2   9   10.33    2.28
  18   2   9    9.20    2.11
  18   2   9    7.78    1.88
  20  -2   9    3.04    1.90
  20   2   9    0.36    1.60
  20   2   9   -0.13    1.54
  22  -2   9   -0.64    1.80
  22   2   9    1.06    1.72
  22   2   9    3.70    1.91
  39  -3  -9    3.11    2.16
  39   3  -9    8.24    2.44
  39   3  -9    5.66    1.95
  37  -3  -9   21.08    2.95
  37   3  -9   21.04    3.05
  37   3  -9   19.45    2.66
  35  -3  -9    7.38    1.40
  35   3  -9    5.77    1.84
  35   3  -9    5.56    1.75
  33  -3  -9   36.38    2.19
  33   3  -9   38.03    3.59
  33   3  -9   32.65    2.98
  31  -3  -9   11.41    1.32
  31   3  -9    5.61    1.77
  31   3  -9   11.09    1.88
  29  -3  -9   15.75    1.38
  29   3  -9   16.71    2.02
  29   3  -9   14.24    2.06
  27  -3  -9   28.42    1.54
  27   3  -9   28.88    2.74
  27   3  -9   30.52    2.59
  25  -3  -9   68.98    2.35
  25   3  -9   72.12    3.69
  25   3  -9   72.76    3.41
  23  -3  -9   55.91    1.88
  23   3  -9   65.87    3.29
  21   3  -9   98.57    4.01
  19   3  -9  112.21    4.25
 -17  -3   9    1.00    1.09
  17   3  -9    1.57    0.86
 -15  -3   9  192.18    5.99
  15   3  -9  184.82    5.71
 -15   3   9  189.97    4.56
 -13  -3   9   18.25    1.87
 -13  -3   9   15.06    1.50
  13   3  -9   14.56    1.44
  11  -3  -9  776.48   17.72
 -11  -3   9  782.41   19.13
 -11  -3   9  775.44   18.78
 -11   3   9  767.66   17.72
  11   3  -9  790.92   18.90
  11   3  -9  804.77   19.06
 -11   3   9  779.49   17.83
  -9  -3   9   45.85    2.23
  -9  -3   9   48.68    2.58
   9  -3  -9   46.76    1.58
   9   3  -9   46.70    2.33
   9   3  -9   48.18    2.40
  -9   3   9   50.17    1.74
  -7  -3   9  359.30    9.78
  -7  -3   9  373.16    9.46
   7  -3  -9  364.97    8.85
   7  -3  -9  355.04    8.94
  -7   3   9  363.94    8.99
   7   3  -9  365.14    9.52
   7   3  -9  367.91    9.69
   5  -3  -9   31.28    1.55
   5  -3  -9   31.62    1.61
  -5  -3   9   31.91    2.21
  -5  -3   9   30.99    1.85
   5   3  -9   25.37    2.70
  -5   3   9   28.78    1.60
   3  -3  -9   81.59    3.00
  -3  -3   9   81.34    3.13
   3  -3  -9   84.30    2.97
  -3  -3   9   82.81    3.53
  -3   3   9   82.20    2.09
  -3   3   9   79.40    3.01
   1  -3  -9   80.68    3.01
  -1  -3   9   76.61    3.45
   1  -3  -9   78.26    3.01
  -1   3   9   73.02    2.25
  -1   3   9   83.45    3.16
   1  -3   9   58.36    3.10
   1   3   9   62.56    2.83
   1   3   9   63.01    2.14
   3  -3   9  161.01    5.63
   3   3   9  162.89    5.38
   3   3   9  150.29    4.49
   5  -3   9    3.87    1.38
   5   3   9    6.50    1.36
   5   3   9    4.28    0.87
   7  -3   9   44.98    2.94
   7  -3   9   49.66    3.24
   7   3   9   54.95    3.06
   7   3   9   53.02    2.51
   9  -3   9    8.49    1.69
   9  -3   9    8.36    1.68
   9   3   9    8.37    1.35
   9   3   9    8.38    1.74
  11  -3   9   66.34    3.88
  11  -3   9   60.30    3.77
  11   3   9   57.87    3.08
  11   3   9   60.57    3.70
  13  -3   9   20.13    2.51
  13   3   9   16.48    2.44
  13   3   9   13.54    1.86
  15  -3   9   51.51    3.78
  15   3   9   53.86    3.30
  15   3   9   49.84    3.76
  17  -3   9   11.93    2.37
  17   3   9   10.98    1.95
  17   3   9   10.48    2.41
  19  -3   9   14.08    2.45
  19   3   9   17.91    2.48
  19   3   9   13.37    2.52
  21  -3   9   -1.35    1.66
  21   3   9    2.76    1.91
  21   3   9    2.36    1.74
  23   3   9    6.23    2.20
  40   4  -9    0.40    1.69
  40   4  -9   -1.99    1.74
  38   4  -9    4.15    2.15
  38   4  -9    3.70    1.86
  36   4  -9   -0.05    1.60
  36   4  -9    0.93    1.53
  34   4  -9    0.88    1.56
  34   4  -9   -1.28    1.18
  32  -4  -9    6.45    1.21
  32   4  -9    5.87    1.68
  32   4  -9    4.76    1.69
  30  -4  -9    2.60    0.74
  30   4  -9    2.45    1.54
  30   4  -9    3.12    1.40
  28  -4  -9    9.16    0.96
  28   4  -9    8.54    1.81
  28   4  -9    8.29    1.61
  26  -4  -9    0.62    0.46
 -26   4   9    2.02    0.88
  26   4  -9    2.03    1.30
  24  -4  -9    5.92    0.58
  24   4  -9    4.26    1.30
 -24   4   9    6.68    1.02
  22   4  -9   11.79    1.77
 -22   4   9   10.99    1.06
 -20   4   9   11.41    0.90
  20   4  -9    7.91    1.52
 -18  -4   9   86.93    3.88
 -18   4   9   91.98    2.40
  18   4  -9   86.20    3.68
 -16  -4   9    0.80    0.92
  16   4  -9    1.46    0.89
 -14  -4   9   44.91    2.63
  14   4  -9   36.66    2.26
 -12  -4   9    9.40    1.38
  12   4  -9    8.87    1.30
  10  -4  -9  125.63    3.05
 -10  -4   9  127.38    4.57
  10  -4  -9  124.46    3.36
 -10   4   9  125.70    3.39
  10   4  -9  121.67    4.30
  -8  -4   9    1.67    1.03
   8  -4  -9    0.43    0.27
   8  -4  -9    0.43    0.39
   8  -4  -9    0.83    0.44
  -8   4   9    0.76    0.55
   8   4  -9   -0.28    0.75
   6  -4  -9   21.48    1.28
  -6  -4   9   21.83    2.02
   6  -4  -9   24.98    1.29
  -6   4   9   23.07    1.44
   6   4  -9   18.40    1.74
   4  -4  -9   95.00    3.21
  -4  -4   9   91.70    3.85
   4  -4  -9   93.71    3.09
  -4   4   9   90.77    3.24
  -2  -4   9   -0.87    0.88
   2  -4  -9    0.18    0.59
   2  -4  -9    0.56    0.70
  -2   4   9    0.08    0.34
  -2   4   9    0.63    0.75
   0  -4   9   12.17    1.72
   0  -4  -9   14.61    1.54
   0   4   9    9.86    1.43
   0   4   9   13.00    0.93
   2  -4   9    5.60    1.41
   2   4   9    6.10    1.38
   2   4   9    5.73    0.77
   4  -4   9    1.30    1.11
   4   4   9    1.02    0.62
   4   4   9   -0.19    0.90
   6  -4   9    9.49    1.73
   6   4   9    7.29    1.09
   6   4   9    6.05    1.44
   8  -4   9   19.44    2.34
   8  -4   9   24.18    2.42
   8   4   9   19.80    2.33
   8   4   9   20.19    1.80
  10  -4   9   17.50    2.41
  10  -4   9   18.65    2.45
  10   4   9   16.18    1.72
  10   4   9   12.18    2.00
  12  -4   9   18.63    2.51
  12  -4   9   13.59    2.36
  12   4   9   20.00    2.07
  12   4   9   15.49    2.33
  14  -4   9    9.51    2.02
  14   4   9    9.99    1.66
  14   4   9   13.19    2.38
  16  -4   9    1.96    1.74
  16   4   9    1.72    1.63
  16   4   9    3.33    1.43
  18  -4   9    0.83    1.63
  18   4   9    2.43    1.75
  18   4   9    3.55    1.60
  20  -4   9    1.52    1.88
  20   4   9    0.47    1.80
  20   4   9    0.23    1.55
  22  -4   9    4.17    2.17
  22   4   9    5.33    2.27
  22   4   9    4.23    1.94
  39   5  -9    9.70    2.38
  39   5  -9    8.66    2.49
  37   5  -9   30.88    3.46
  37   5  -9   24.33    3.38
  35   5  -9    4.94    1.97
  35   5  -9    7.15    1.96
  33   5  -9   18.98    2.79
  33   5  -9   17.26    2.45
  31   5  -9    3.58    1.67
  29   5  -9   44.87    3.75
  27  -5  -9   44.63    1.59
  27   5  -9   33.31    3.11
  25  -5  -9  103.52    2.72
  25   5  -9  102.85    4.66
 -25   5   9  104.91    3.51
  23   5  -9   99.47    4.38
 -23   5   9   95.75    3.03
  21   5  -9   23.00    2.37
 -21   5   9   21.02    1.08
 -19  -5   9   91.85    4.21
  19   5  -9   88.21    3.91
 -17  -5   9   -0.98    1.11
  17   5  -9    0.29    0.93
 -15  -5   9  206.86    6.72
  15   5  -9  199.00    6.45
  13  -5  -9    4.25    0.43
 -13  -5   9    6.27    1.39
  13   5  -9    3.04    1.03
  11  -5  -9  244.90    6.24
  11  -5  -9  237.56    6.03
 -11  -5   9  249.90    7.57
  11   5  -9  247.41    7.34
   9  -5  -9    1.08    0.32
  -9  -5   9    0.87    0.99
   9  -5  -9    0.14    0.37
   9  -5  -9    0.37    0.42
  -9   5   9    0.99    0.53
   9   5  -9   -0.48    0.84
   7  -5  -9   73.88    2.18
  -7  -5   9   73.96    3.48
   7  -5  -9   76.95    2.40
   7  -5  -9   80.91    2.67
   7   5  -9   78.31    3.41
  -7   5   9   71.48    2.67
  -5  -5   9   55.85    3.01
   5  -5  -9   51.41    2.16
   5  -5  -9   49.49    2.02
   5  -5  -9   48.16    1.56
  -5   5   9   47.21    2.24
   3  -5  -9   31.33    1.78
  -3  -5   9   34.92    2.49
   3  -5  -9   37.92    1.99
  -3   5   9   33.44    1.33
  -3   5   9   34.84    2.05
   1  -5  -9  220.39    6.16
  -1  -5   9  205.42    6.89
  -1   5   9  207.78    6.38
  -1   5   9  208.50    5.39
   1  -5   9   28.56    2.63
   1   5   9   28.03    1.45
   1   5   9   28.77    2.16
   3  -5   9   59.96    3.40
   3   5   9   59.37    3.12
   3   5   9   59.54    2.35
   5  -5   9    6.19    1.61
   5   5   9    6.39    0.99
   5   5   9    7.49    1.49
   7  -5   9   23.35    2.64
   7   5   9   26.08    2.52
   7   5   9   28.80    1.94
   9  -5   9   22.61    2.56
   9  -5   9   20.42    2.66
   9   5   9   21.24    1.90
   9   5   9   17.73    2.28
  11  -5   9   73.31    4.12
  11  -5   9   72.35    4.28
  11   5   9   68.02    4.01
  11   5   9   75.35    3.47
  13  -5   9   31.04    3.22
  13  -5   9   27.34    3.03
  13   5   9   29.65    3.22
  13   5   9   28.40    2.47
  15  -5   9   70.24    4.34
  15   5   9   61.00    4.20
  15   5   9   64.34    3.61
  17  -5   9   15.77    2.65
  17   5   9   11.21    2.43
  17   5   9    8.80    1.84
  19  -5   9    9.96    2.43
  19   5   9    8.80    2.46
  19   5   9   10.48    2.06
  21  -5   9   24.66    3.38
  21   5   9   26.59    3.06
  21   5   9   21.07    3.30
  36   6  -9    2.21    1.92
  34   6  -9    9.02    2.25
  32   6  -9    1.64    1.55
  30   6  -9    9.97    2.19
  28   6  -9   -0.49    1.35
  26   6  -9   87.27    4.59
 -24   6   9    1.26    0.92
  24   6  -9    0.28    1.24
  22   6  -9    2.82    1.29
 -22   6   9    2.74    0.54
 -20  -6   9    2.71    1.47
  20   6  -9    1.88    1.14
 -18  -6   9    2.21    1.29
  18   6  -9   -1.42    0.88
 -16  -6   9   59.81    3.42
  16   6  -9   51.28    3.02
 -14  -6   9   10.79    1.83
  14  -6  -9   10.51    0.67
  14   6  -9    8.55    1.48
 -12  -6   9   36.48    2.91
  12  -6  -9   26.18    1.22
  12  -6  -9   27.66    1.52
  12   6  -9   24.47    2.25
  10  -6  -9   -0.16    0.40
 -10  -6   9    0.36    1.15
  10  -6  -9   -0.12    0.44
  10   6  -9    0.74    1.08
   8  -6  -9   -0.37    0.40
   8  -6  -9   -0.29    0.31
  -8  -6   9    0.65    1.16
   8  -6  -9    0.06    0.44
   8   6  -9    0.36    0.98
  -8   6   9    1.26    0.64
  -6  -6   9    5.40    1.49
   6  -6  -9    5.99    0.82
   6  -6  -9    7.14    0.72
   6  -6  -9    8.65    1.05
  -6   6   9    6.95    1.06
   4  -6  -9    7.63    0.76
  -4  -6   9    8.03    1.64
   4  -6  -9   10.35    1.11
  -4   6   9    9.55    1.31
   2  -6  -9   19.60    1.61
   2  -6  -9   19.68    1.09
  -2  -6   9   17.92    2.06
  -2   6   9   20.08    1.86
  -2   6   9   21.58    1.26
   0  -6   9    1.28    1.20
   0   6   9    2.25    1.10
   0   6   9    2.13    0.64
   2  -6   9   -0.30    1.16
   2   6   9    1.88    0.64
   2   6   9    1.42    1.06
   4  -6   9    4.86    1.57
   4   6   9    0.25    1.00
   4   6   9    2.10    0.75
   6  -6   9    1.53    1.41
   6   6   9    2.42    0.88
   6   6   9    2.77    1.33
   8  -6   9    1.15    1.46
   8   6   9    2.86    1.00
   8   6   9    1.21    1.34
  10  -6   9   33.00    3.27
  10  -6   9   35.60    3.26
  10   6   9   37.35    3.39
  10   6   9   31.37    2.47
  12  -6   9   -1.25    1.40
  12  -6   9   -1.04    1.44
  12   6   9    0.40    0.99
  12   6   9   -0.54    1.29
  14  -6   9    5.29    2.01
  14  -6   9    9.09    2.11
  14   6   9    7.30    1.59
  14   6   9    8.07    2.06
  16  -6   9    9.61    2.36
  16   6   9    7.30    2.15
  16   6   9    8.16    1.83
  18  -6   9    0.50    1.85
  18   6   9    2.95    1.56
  18   6   9    0.43    1.83
  20  -6   9    1.55    2.01
  20   6   9   -3.84    2.01
  20   6   9   -0.86    1.95
  35   7  -9    2.23    2.00
  33   7  -9   27.65    3.54
  31   7  -9    3.54    1.82
  29   7  -9   36.26    3.49
  27   7  -9   34.01    3.42
  25   7  -9   24.38    2.67
 -23  -7   9    0.67    1.56
  23   7  -9    2.17    1.43
 -21  -7   9   19.99    2.54
  21   7  -9   20.98    2.58
 -19  -7   9    4.70    1.67
  19   7  -9    5.28    1.60
 -17  -7   9    5.70    1.68
  17  -7  -9    5.38    0.44
  17   7  -9    7.17    1.70
  15  -7  -9  131.91    3.50
 -15  -7   9  130.66    5.43
  15   7  -9  136.60    5.35
 -13  -7   9   -0.74    1.23
  13  -7  -9    0.08    0.60
  13  -7  -9    0.64    0.45
  13   7  -9   -1.03    1.02
  11  -7  -9  123.80    3.68
  11  -7  -9  127.85    3.93
 -11  -7   9  119.54    5.06
  11   7  -9  121.57    4.98
   9  -7  -9    1.36    0.62
  -9  -7   9    2.72    1.34
   9  -7  -9    1.82    0.60
   9  -7  -9    1.04    0.39
   9  -7  -9    1.60    0.43
   9   7  -9    0.29    1.01
  -7  -7   9  103.17    4.57
   7  -7  -9  103.81    3.27
   7  -7  -9  103.02    3.53
  -7   7   9  110.03    3.73
   5  -7  -9    5.32    0.78
  -5  -7   9    7.71    1.71
  -5   7   9    5.81    1.10
  -3  -7   9   55.99    3.39
   3  -7  -9   62.79    2.25
  -3   7   9   61.88    2.93
   1  -7  -9   38.94    1.77
  -1  -7   9   42.37    3.02
  -1   7   9   38.68    2.51
  -1   7   9   41.38    1.91
   1  -7   9   13.09    2.06
   1   7   9   11.19    1.19
   1   7   9   12.14    1.73
   3  -7   9   52.98    3.54
   3   7   9   49.85    2.33
   3   7   9   44.84    3.04
   5  -7   9   11.12    2.08
   5   7   9   14.46    1.49
   5   7   9   12.34    1.97
   7  -7   9   44.76    3.44
   7   7   9   51.51    2.65
   7   7   9   53.02    3.40
   9  -7   9   -0.74    1.39
   9   7   9   -0.50    0.92
   9   7   9    0.39    1.32
  11  -7   9   34.09    3.48
  11  -7   9   30.32    3.36
  11   7   9   30.96    3.28
  11   7   9   36.38    2.56
  13  -7   9    5.41    2.18
  13  -7   9    7.58    2.13
  13   7   9    7.86    2.08
  13   7   9    8.49    1.64
  15  -7   9   41.13    3.97
  15  -7   9   34.68    3.57
  15   7   9   40.78    4.07
  15   7   9   39.37    3.19
  17  -7   9   -0.73    1.76
  17   7   9    1.91    1.98
  34   8  -9   -0.67    1.75
  32   8  -9    2.75    1.99
  30   8  -9    0.69    1.61
  28   8  -9    2.76    1.79
  26   8  -9   10.19    2.31
 -24  -8   9    1.76    1.69
  24   8  -9   -0.78    1.36
 -22  -8   9   -3.09    1.36
  22   8  -9   -2.06    1.13
 -20  -8   9    0.77    1.49
  20   8  -9    0.20    1.39
 -18  -8   9    0.87    1.46
  18   8  -9    1.93    1.43
 -16  -8   9   -1.12    1.24
  16   8  -9   -0.72    1.19
 -14  -8   9   26.41    2.74
  14   8  -9   29.66    2.92
  12  -8  -9   -0.94    0.48
 -12  -8   9    0.09    1.32
  12   8  -9    0.06    1.20
  10  -8  -9    2.17    0.42
  10  -8  -9    1.44    0.72
  10  -8  -9    2.05    0.74
 -10  -8   9    2.72    1.44
  10  -8  -9    3.38    0.48
  10   8  -9    1.75    1.35
  -8  -8   9    7.91    1.77
   8  -8  -9    5.42    0.91
   8  -8  -9    5.48    0.76
   6  -8  -9    1.89    0.65
  -6  -8   9    2.34    1.37
   4  -8  -9   20.70    2.08
  -4  -8   9   21.28    2.51
  -4   8   9   18.00    1.88
  -2  -8   9   -1.05    1.22
  -2   8   9   -0.33    0.96
   0  -8   9   45.76    3.32
   0   8   9   42.08    2.20
   0   8   9   49.06    2.98
   2  -8   9    0.39    1.26
   2   8   9   -0.07    0.77
   2   8   9    0.68    1.18
   4  -8   9   20.50    2.62
   4   8   9   19.49    1.76
   4   8   9   19.73    2.36
   6  -8   9    3.86    1.68
   6   8   9    1.05    1.01
   6   8   9    1.19    1.49
   8  -8   9    3.39    1.70
   8   8   9    4.35    1.23
   8   8   9    4.33    1.85
  10  -8   9    3.65    1.72
  10   8   9   -0.17    1.53
  10   8   9    4.06    1.32
  12  -8   9   -3.88    1.35
  12  -8   9   -0.95    1.57
  12   8   9    0.46    1.95
  12   8   9    0.42    1.67
  14  -8   9    0.95    1.67
  14  -8   9   -1.45    1.66
  14   8   9    1.55    1.90
  16  -8   9    8.44    2.34
  16  -8   9   14.23    2.67
  16   8   9   10.00    2.54
  31   9  -9    8.77    2.54
 -29  -9   9   46.44    4.37
  29   9  -9   41.54    3.95
 -27  -9   9    3.15    2.12
  27   9  -9    1.93    1.77
 -25  -9   9   14.85    2.80
  25   9  -9   13.11    2.45
 -23  -9   9   30.72    3.68
  23   9  -9   28.40    3.18
 -21  -9   9    2.46    1.79
  21   9  -9    1.50    1.51
 -19  -9   9  110.03    5.54
  19   9  -9  108.16    5.32
 -17  -9   9   53.78    3.85
  17   9  -9   53.14    3.86
 -15  -9   9  200.97    7.55
  15   9  -9  195.93    7.40
 -13  -9   9    3.01    1.60
  13   9  -9    3.46    1.51
 -11  -9   9   17.19    2.45
  11   9  -9   17.64    2.48
  -9  -9   9   31.47    3.09
   9  -9  -9   37.20    1.56
   7  -9  -9   94.31    3.13
  -7  -9   9   92.08    4.69
  -5  -9   9   94.17    4.80
   5  -9  -9   90.34    3.30
  -3  -9   9   79.48    4.37
  -1  -9   9   61.63    3.90
  -1   9   9   51.22    3.21
   1  -9   9    2.40    1.57
   1   9   9    2.18    0.95
   1   9   9    2.48    1.35
   3  -9   9   16.19    2.43
   3   9   9   15.75    1.70
   3   9   9   17.37    2.42
   5  -9   9   12.33    2.30
   5   9   9    8.55    2.03
   5   9   9   10.60    1.58
   7  -9   9   65.92    4.31
   7   9   9   65.32    4.11
   9  -9   9   -1.91    1.38
   9   9   9   -1.64    1.26
  11  -9   9    9.30    2.30
  11   9   9   10.25    2.39
  13  -9   9    3.72    1.91
  13  -9   9    5.43    2.09
  13   9   9    1.10    1.75
 -28 -10   9    4.97    2.55
  28  10  -9    4.38    2.15
 -26 -10   9    3.57    2.27
  26  10  -9    0.82    1.89
 -24 -10   9    2.07    2.02
  24  10  -9    4.19    2.07
 -22 -10   9   20.21    3.04
  22  10  -9   17.66    2.94
 -20 -10   9    0.71    1.75
  20  10  -9   -0.95    1.67
 -18 -10   9   -0.10    1.57
  18  10  -9    4.92    1.94
 -16 -10   9    1.63    1.68
  16  10  -9    3.64    1.86
 -14 -10   9    0.65    1.58
  14  10  -9    0.03    1.59
 -12 -10   9   10.52    2.23
  12  10  -9    6.86    2.06
 -10 -10   9   14.69    2.39
  -8 -10   9   16.79    2.59
  -6 -10   9   -0.30    1.47
   4 -10  -9    0.63    0.86
  -4 -10   9   -1.25    1.36
  -2 -10   9    2.57    1.66
   0 -10   9    2.07    1.63
   2 -10   9    0.64    1.53
   2  10   9    1.36    1.34
   4 -10   9    0.30    1.57
   4  10   9    3.17    1.66
   6 -10   9    1.49    1.73
   6  10   9    2.47    1.73
   8 -10   9    1.01    1.69
   8  10   9   -0.07    1.70
  10 -10   9    1.02    1.81
  10  10   9    3.20    1.88
 -25 -11   9    3.35    2.36
  25  11  -9    4.03    2.22
 -23 -11   9   17.33    3.04
  23  11  -9   14.62    2.98
 -21 -11   9   12.78    2.66
  21  11  -9   12.04    2.62
 -19 -11   9   23.66    3.17
  19  11  -9   26.28    3.36
 -17 -11   9    8.05    2.25
  17  11  -9    9.06    2.37
 -15 -11   9   41.72    3.91
  15  11  -9   34.03    3.60
 -13 -11   9   11.46    2.44
  13  11  -9    6.24    2.11
 -11 -11   9   25.71    3.12
  -9 -11   9    0.62    1.59
  -7 -11   9   50.06    3.93
  -5 -11   9   13.96    2.58
  -3 -11   9   23.60    3.02
  -1 -11   9   18.67    2.77
   1 -11   9    3.06    1.67
   3 -11   9   15.32    2.57
   5 -11   9   -1.40    1.57
   5  11   9   -0.51    1.47
   7 -11   9   48.82    4.32
   7  11   9   49.78    4.34
 -20 -12   9    8.65    2.55
  20  12  -9    4.59    2.16
 -18 -12   9   16.53    2.99
  18  12  -9   21.57    3.35
 -16 -12   9    1.80    1.98
  16  12  -9    3.51    2.22
 -14 -12   9    7.32    2.34
  14  12  -9    9.29    2.54
 -12 -12   9    2.49    1.92
 -10 -12   9    0.58    1.74
  -8 -12   9   29.46    3.43
  -6 -12   9    1.37    1.74
  -4 -12   9   10.67    2.42
  -2 -12   9    0.61    1.64
   0 -12   9    5.28    2.14
   2 -12   9    9.22    2.37
  42   0 -10    2.83    1.56
  42   0 -10   -0.43    1.84
  40   0 -10   20.73    2.48
  40   0 -10   14.85    2.76
  38   0 -10    0.36    1.18
  38   0 -10    1.55    1.78
  36   0 -10   66.48    3.48
  36   0 -10   61.35    4.23
  34   0 -10   76.91    4.35
  34   0 -10   65.97    3.39
  32   0 -10   35.66    3.11
  32   0 -10   39.48    2.47
  30   0 -10    2.94    1.34
  30   0 -10    6.74    1.21
  28   0 -10   30.79    1.96
  28   0 -10   28.40    2.58
  26   0 -10   28.37    1.75
  26   0 -10   29.98    2.51
 -24   0  10   17.38    1.45
  24   0 -10   19.27    1.95
  22   0 -10  280.06    7.98
 -22   0  10  280.24    7.33
 -20   0  10   54.60    2.14
  20   0 -10   52.93    2.48
  18   0 -10  220.45    6.27
 -18   0  10  224.31    5.86
 -18   0  10  221.11    6.22
  16   0 -10   49.13    2.17
 -16   0  10   48.80    2.22
 -16   0  10   46.85    2.11
 -14   0  10   24.20    1.41
 -14   0  10   23.01    1.58
  14   0 -10   21.94    1.37
 -12   0  10   28.89    1.41
  12   0 -10   24.90    1.51
  12   0 -10   29.50    1.44
 -12   0  10   27.46    1.68
  10   0 -10  148.10    4.11
  10   0 -10  153.44    4.47
 -10   0  10  149.26    4.10
 -10   0  10  158.91    4.57
   8   0 -10   50.27    1.82
  -8   0  10   51.40    1.79
  -8   0  10   51.87    2.28
   8   0 -10   49.70    2.18
  -6   0  10  123.97    3.48
   6   0 -10  125.89    4.01
  -6   0  10  126.69    4.12
  -4   0  10  120.72    3.54
   4   0 -10  130.94    4.19
  -4   0  10  122.70    4.25
   2   0 -10   54.66    2.68
  -2   0  10   55.50    2.73
  -2   0  10   51.96    2.73
   0   0  10  257.83    7.58
   0   0  10  254.60    7.46
   2   0  10   16.92    1.89
   2   0  10   21.46    2.09
   4   0  10  187.20    6.16
   4   0  10  179.81    6.17
   6   0  10  144.94    5.38
   8   0  10   71.69    3.73
  10   0  10    9.09    1.79
  12   0  10   46.94    3.46
  14   0  10   70.65    4.14
  16   0  10    1.67    1.69
  18   0  10   64.63    4.53
  20   0  10   20.08    3.10
  22   0  10   45.24    4.44
  41  -1 -10    3.06    2.06
  41   1 -10   -0.24    1.35
  41   1 -10    1.76    1.96
  39  -1 -10   -0.11    1.14
  39  -1 -10   -0.33    1.68
  39   1 -10    0.56    1.38
  39   1 -10    2.56    1.71
  37  -1 -10    1.20    1.15
  37  -1 -10    3.36    1.83
  37   1 -10    1.68    1.26
  37   1 -10    2.28    1.74
  35  -1 -10   -0.50    1.47
  35  -1 -10    0.78    0.98
  35   1 -10    1.99    1.16
  35   1 -10    0.65    1.51
  33  -1 -10   -0.43    0.85
  33  -1 -10    0.36    1.37
  33   1 -10    0.04    1.22
  33   1 -10   -0.16    0.99
  31  -1 -10    4.35    1.05
  31  -1 -10    3.19    1.33
  31   1 -10    4.03    1.42
  31   1 -10    3.95    1.18
  29  -1 -10    5.64    1.53
  29  -1 -10    7.64    1.14
  29   1 -10    5.59    1.42
  29   1 -10    8.32    1.36
  27  -1 -10    1.61    1.07
  27  -1 -10    0.94    0.65
 -27   1  10    0.35    0.72
  27   1 -10    2.36    1.20
  27   1 -10    1.54    0.84
  25  -1 -10    5.91    0.89
  25  -1 -10    6.12    1.38
  25   1 -10    4.36    1.21
 -25   1  10    6.02    0.91
 -23  -1  10   13.22    1.33
  23  -1 -10   12.68    1.52
 -23   1  10   14.97    1.12
  23   1 -10   10.55    1.47
  21  -1 -10    5.25    1.12
 -21  -1  10    4.95    0.93
  21   1 -10    5.04    1.14
 -21   1  10    4.60    0.71
  19  -1 -10    0.21    0.65
 -19  -1  10   -0.76    0.56
 -19   1  10   -0.08    0.44
  19   1 -10    1.21    0.81
 -17  -1  10  148.48    4.72
 -17  -1  10  143.67    4.31
  17  -1 -10  147.42    4.40
 -17  -1  10  147.93    4.56
 -17   1  10  150.04    3.89
  17   1 -10  143.46    4.57
 -17   1  10  140.18    4.24
 -15  -1  10    8.98    1.07
 -15  -1  10    7.15    1.13
  15  -1 -10   10.75    0.99
  15   1 -10    9.05    1.06
 -15   1  10    8.93    0.97
  13  -1 -10    1.58    0.57
  13  -1 -10    1.08    0.53
 -13  -1  10    0.27    0.59
 -13  -1  10    1.18    0.81
  13   1 -10    1.69    0.75
 -13   1  10    0.67    0.63
  13   1 -10    1.87    0.74
  11  -1 -10   -0.08    0.38
 -11  -1  10    0.70    0.85
 -11  -1  10   -0.33    0.54
  11  -1 -10   -0.04    0.48
 -11   1  10    0.30    0.39
 -11   1  10   -0.53    0.56
  11   1 -10    0.51    0.62
  11   1 -10    0.77    0.62
   9  -1 -10    3.29    0.47
  -9  -1  10    3.58    0.70
   9  -1 -10    5.40    0.79
  -9  -1  10    4.40    1.02
   9   1 -10    6.09    1.02
   9   1 -10    4.91    0.82
  -9   1  10    2.67    0.75
  -9   1  10    3.16    0.47
  -7  -1  10   26.00    1.85
  -7  -1  10   20.32    1.28
   7  -1 -10   23.31    1.47
  -7   1  10   22.97    1.57
  -7   1  10   20.81    0.92
  -7   1  10   22.86    1.47
  -5  -1  10   70.80    2.57
  -5  -1  10   71.38    3.06
   5  -1 -10   74.46    2.77
  -5   1  10   77.11    2.95
  -5   1  10   72.97    2.14
   5   1 -10   74.91    2.98
  -5   1  10   75.26    2.90
  -3  -1  10  149.27    5.00
   3  -1 -10  139.30    4.61
  -3  -1  10  139.20    4.23
  -3   1  10  152.16    4.74
   3   1 -10  149.85    4.87
  -3   1  10  142.05    4.66
  -1  -1  10    5.70    1.19
  -1   1  10    8.40    1.37
  -1   1  10   11.72    1.52
   1  -1  10   46.04    2.67
   1  -1  10   41.11    2.62
   1   1  10   45.19    2.56
   1   1  10   48.52    2.61
   3  -1  10    0.77    1.08
   3  -1  10    0.98    1.00
   3   1  10   -1.18    0.90
   5  -1  10    0.79    1.15
   5  -1  10   -0.30    1.12
   5   1  10    1.75    1.14
   7  -1  10   43.67    2.86
   7  -1  10   38.92    2.79
   7   1  10   39.66    2.77
   9  -1  10   12.04    1.98
   9   1  10   14.94    2.02
  11  -1  10   26.75    2.82
  11   1  10   26.88    2.77
  13  -1  10    0.25    1.42
  13   1  10   -0.13    1.35
  15  -1  10    6.58    1.98
  15   1  10    6.70    1.81
  17  -1  10    2.26    1.66
  17   1  10    0.20    1.52
  19  -1  10    0.99    1.55
  19   1  10    0.56    1.75
  21  -1  10    2.53    2.03
  21   1  10   -1.66    1.61
  21   1  10   -0.03    1.58
  40  -2 -10    8.58    2.55
  40   2 -10   10.59    2.18
  40   2 -10    4.27    2.20
  38  -2 -10   -0.20    1.56
  38   2 -10    0.64    1.66
  38   2 -10   -0.22    1.32
  36  -2 -10   47.79    2.74
  36  -2 -10   48.81    4.07
  36   2 -10   42.96    3.23
  36   2 -10   48.96    4.19
  34  -2 -10    2.90    1.03
  34  -2 -10    2.14    1.62
  34   2 -10    0.52    1.16
  34   2 -10    3.19    1.72
  32  -2 -10   38.09    3.33
  32  -2 -10   32.58    2.07
  32   2 -10   37.35    2.68
  32   2 -10   36.06    3.15
  30  -2 -10   24.19    2.48
  30  -2 -10   27.98    1.78
  30   2 -10   32.31    2.36
 -30   2  10   28.51    2.04
  30   2 -10   26.78    2.65
  28  -2 -10   30.93    1.67
  28  -2 -10   30.00    2.64
  28   2 -10   24.37    2.42
 -28   2  10   26.71    1.67
  28   2 -10   30.16    2.23
  26  -2 -10   59.21    2.24
 -26   2  10   55.24    2.23
  26   2 -10   64.26    3.29
  24   2 -10   59.43    3.17
 -24   2  10   57.81    2.11
  22   2 -10  231.86    7.12
 -22   2  10  236.01    5.88
  20  -2 -10   36.85    2.06
  20   2 -10   32.54    2.21
 -20   2  10   33.53    1.24
 -18  -2  10  111.41    3.79
 -18  -2  10  117.04    4.21
  18  -2 -10  113.89    3.71
 -18   2  10  110.40    2.87
 -18   2  10  113.85    3.37
  18   2 -10  110.28    4.02
 -16  -2  10    9.13    1.18
 -16  -2  10    9.18    1.44
  16  -2 -10    8.14    1.06
 -16   2  10    8.40    0.84
  16   2 -10    8.96    1.24
 -16   2  10    7.98    0.55
  14  -2 -10  196.58    5.10
 -14  -2  10  196.60    5.60
  14   2 -10  190.64    5.64
 -14   2  10  192.29    5.01
  12  -2 -10   60.95    2.01
  12  -2 -10   61.50    1.92
 -12  -2  10   63.22    2.50
 -12   2  10   59.73    2.08
  12   2 -10   62.58    2.69
 -12   2  10   63.15    2.02
  12   2 -10   62.04    2.54
 -10  -2  10   63.76    2.87
 -10  -2  10   67.25    2.53
  10  -2 -10   66.57    1.77
  10  -2 -10   66.09    2.18
 -10   2  10   64.39    2.24
  10   2 -10   65.91    2.75
  10   2 -10   63.82    2.59
 -10   2  10   62.34    2.18
   8  -2 -10  395.34    9.49
  -8  -2  10  393.55    9.74
  -8  -2  10  377.42   10.17
  -8   2  10  375.15    9.52
   8   2 -10  391.34   10.11
   8   2 -10  373.73    9.77
  -8   2  10  391.09    9.55
   6  -2 -10   58.65    2.28
  -6  -2  10   54.54    2.83
  -6  -2  10   54.70    2.34
   6   2 -10   60.13    2.68
  -6   2  10   52.94    2.38
  -6   2  10   67.57    2.57
  -4  -2  10    9.29    1.11
   4  -2 -10   12.71    1.42
  -4  -2  10   10.57    1.61
  -4   2  10    9.21    1.19
  -4   2  10   10.46    1.25
  -2  -2  10   57.32    2.46
   2  -2 -10   60.58    2.63
  -2  -2  10   57.82    2.98
  -2   2  10   59.81    2.72
   0  -2  10  138.79    4.95
   0   2  10  127.85    4.53
   2  -2  10   12.67    1.67
   2   2  10   15.55    1.79
   4  -2  10  115.81    4.70
   4  -2  10  116.29    4.80
   4   2  10  112.73    4.45
   6  -2  10    0.59    1.13
   6  -2  10   -0.19    0.99
   6   2  10   -0.21    0.92
   8  -2  10  127.31    5.20
   8  -2  10  113.52    5.12
   8   2  10  116.19    4.90
  10  -2  10   14.38    2.16
  10   2  10   12.15    1.95
  12  -2  10   70.63    4.08
  12   2  10   66.59    3.96
  14  -2  10   78.54    4.44
  14   2  10   75.56    4.34
  16  -2  10    4.98    1.96
  16   2  10    7.93    2.03
  16   2  10    3.53    1.55
  18  -2  10   23.70    3.22
  18   2  10   27.57    2.96
  18   2  10   23.85    3.09
  20  -2  10    2.47    1.99
  20   2  10    2.86    1.85
  20   2  10    4.36    1.95
  22  -2  10   24.55    3.43
  22   2  10   24.67    3.26
  22   2  10   27.64    3.54
  41  -3 -10    3.29    2.14
  41   3 -10    0.17    1.93
  41   3 -10    0.24    1.55
  39  -3 -10    1.13    1.81
  39   3 -10    1.80    1.59
  39   3 -10    3.40    2.02
  37  -3 -10    2.00    1.60
  37   3 -10   -0.54    1.65
  37   3 -10   -1.01    1.25
  35   3 -10    3.64    1.87
  35   3 -10    6.62    1.63
  33  -3 -10    0.41    0.76
  33   3 -10    0.74    1.12
  33   3 -10    2.36    1.62
  31  -3 -10   39.16    1.99
  31   3 -10   39.54    2.72
  31   3 -10   34.04    3.17
  29  -3 -10   20.21    1.34
  29   3 -10   20.26    2.34
  29   3 -10   12.56    1.80
  27  -3 -10    4.85    0.71
  27   3 -10    1.83    1.14
  25  -3 -10   24.48    1.14
  25   3 -10   19.30    2.08
  23   3 -10   14.62    1.74
  21   3 -10   14.86    1.79
 -19  -3  10   16.32    1.87
  19   3 -10   12.33    1.48
 -19   3  10   16.18    1.04
 -17  -3  10   42.17    2.59
 -17   3  10   46.67    1.52
  17   3 -10   43.66    2.47
 -15  -3  10    6.86    1.31
 -15   3  10    5.06    0.51
  15   3 -10    3.16    0.90
  13   3 -10   29.19    1.98
 -13   3  10   30.71    1.10
 -13   3  10   31.48    1.07
 -11  -3  10   91.95    3.35
  11  -3 -10   94.18    2.48
  11  -3 -10   94.34    2.60
 -11  -3  10   91.61    3.75
 -11   3  10   92.17    2.68
  11   3 -10   94.46    3.47
 -11   3  10   92.70    2.61
   9  -3 -10   20.90    1.19
  -9  -3  10   21.04    1.62
  -9  -3  10   23.65    2.20
  -9   3  10   21.01    1.25
   9   3 -10   18.32    1.58
  -7  -3  10   16.89    1.78
  -7  -3  10   16.65    1.44
   7  -3 -10   16.16    1.26
   7   3 -10   13.36    1.42
  -7   3  10   15.06    1.27
   5  -3 -10    9.87    1.08
   5  -3 -10   10.25    1.17
  -5  -3  10   12.22    1.66
  -5  -3  10   10.54    1.42
  -5   3  10   10.02    1.16
   3  -3 -10   21.14    1.54
  -3  -3  10   23.44    2.23
   3  -3 -10   23.24    1.60
  -3   3  10   20.35    0.79
  -3   3  10   16.98    1.53
  -1  -3  10   58.46    3.09
   1  -3 -10   66.56    2.78
  -1   3  10   60.75    2.75
  -1   3  10   57.88    1.93
   1  -3  10    9.61    1.66
   1   3  10   11.59    0.98
   1   3  10   10.00    1.45
   3  -3  10    4.29    1.33
   3   3  10    4.96    0.86
   3   3  10    3.03    1.17
   5  -3  10   19.43    2.16
   5  -3  10   23.06    2.49
   5   3  10   18.34    2.13
   5   3  10   21.87    1.60
   7  -3  10   12.68    2.04
   7  -3  10   11.64    1.96
   7   3  10   12.04    1.44
   7   3  10   10.47    1.74
   9  -3  10   21.71    2.68
   9  -3  10   22.18    2.64
   9   3  10   25.98    2.59
   9   3  10   22.25    2.03
  11  -3  10    0.16    1.25
  11  -3  10    0.62    1.59
  11   3  10   -0.07    1.32
  11   3  10    0.93    1.01
  13  -3  10    6.11    1.82
  13   3  10    3.00    1.32
  13   3  10    2.39    1.65
  15  -3  10    6.25    1.94
  15   3  10    9.41    1.83
  15   3  10    5.45    1.86
  17  -3  10    4.27    1.86
  17   3  10    4.60    1.90
  17   3  10    3.45    1.57
  19  -3  10   11.07    2.68
  19   3  10   14.61    2.78
  19   3  10    9.93    2.17
  21  -3  10    7.37    2.34
  21   3  10    5.64    2.08
  21   3  10    9.71    2.46
  40  -4 -10   50.47    4.71
  40   4 -10   55.37    4.50
  40   4 -10   55.11    4.84
  38   4 -10   -0.26    1.42
  38   4 -10    1.52    1.85
  36   4 -10   41.85    3.58
  36   4 -10   45.94    4.12
  34   4 -10   25.32    3.25
  34   4 -10   23.20    2.67
  32   4 -10    2.69    1.52
  30  -4 -10   83.56    2.78
  30   4 -10   80.32    4.47
  28  -4 -10   13.54    0.98
  28   4 -10   15.32    2.22
 -28   4  10   15.50    1.74
  26  -4 -10   94.93    2.57
 -26   4  10   92.14    3.28
  26   4 -10   91.95    4.29
  24   4 -10   24.48    2.33
 -24   4  10   28.56    1.55
  22   4 -10   35.51    2.63
 -22   4  10   41.53    1.64
 -20  -4  10   -0.22    1.05
 -20   4  10   -0.06    0.37
  20   4 -10   -0.22    1.00
 -18  -4  10  107.93    4.48
  18   4 -10  116.61    4.34
 -16  -4  10   46.51    2.87
  16   4 -10   51.98    2.73
 -14  -4  10  268.72    7.91
  14   4 -10  261.27    7.65
 -12  -4  10   42.67    2.59
 -12   4  10   36.96    1.35
  12   4 -10   40.09    2.29
  10  -4 -10  281.95    6.63
  10  -4 -10  286.96    7.01
 -10  -4  10  280.76    8.24
  10  -4 -10  275.18    6.74
  10   4 -10  278.00    7.95
 -10   4  10  285.96    7.05
   8  -4 -10   44.02    1.67
   8  -4 -10   41.99    1.78
  -8  -4  10   41.02    2.62
  -8   4  10   42.35    1.86
   8   4 -10   39.40    2.29
  -6  -4  10   56.22    2.96
   6  -4 -10   48.77    2.09
   6  -4 -10   51.75    2.06
  -6   4  10   50.70    2.21
  -4  -4  10  125.60    4.71
   4  -4 -10  124.90    3.90
   4  -4 -10  118.61    3.95
  -4   4  10  118.88    4.06
  -2  -4  10    0.26    0.93
   2  -4 -10    0.75    0.67
  -2   4  10    1.13    0.77
  -2   4  10    0.28    0.35
   0  -4  10  211.68    7.04
   0   4  10  221.00    5.56
   0   4  10  216.42    6.68
   2  -4  10    1.15    1.19
   2   4  10   -0.35    0.49
   2   4  10    1.40    0.96
   4  -4  10  149.12    5.69
   4   4  10  142.99    4.38
   4   4  10  139.45    5.28
   6  -4  10   11.83    1.98
   6   4  10   13.44    1.41
   6   4  10   16.28    2.13
   8  -4  10   29.76    3.09
   8  -4  10   37.32    3.40
   8   4  10   29.09    2.86
   8   4  10   26.72    1.99
  10  -4  10   12.44    2.22
  10  -4  10    8.68    2.04
  10   4  10   13.21    1.64
  10   4  10   11.40    2.10
  12  -4  10   56.52    3.95
  12  -4  10   61.84    4.07
  12   4  10   54.07    3.69
  12   4  10   56.79    3.17
  14  -4  10   26.78    3.07
  14   4  10   32.67    2.76
  14   4  10   35.20    3.58
  16  -4  10   24.61    3.21
  16   4  10   21.60    2.52
  16   4  10   23.22    3.02
  18  -4  10   24.63    3.27
  18   4  10   21.34    2.61
  18   4  10   14.24    2.58
  20  -4  10   -2.79    1.74
  20   4  10   -0.29    1.60
  20   4  10    3.30    1.80
  39   5 -10   -2.19    1.54
  37   5 -10    5.47    2.24
  35   5 -10    2.31    1.86
  33   5 -10    1.92    1.61
  31   5 -10    3.39    1.70
  29   5 -10   15.50    2.26
  27   5 -10    2.84    1.38
  25   5 -10    4.22    1.54
 -25   5  10    7.30    1.01
  23   5 -10    1.66    1.13
 -23   5  10    0.56    0.50
 -21  -5  10    7.07    1.63
  21   5 -10    6.74    1.41
 -19  -5  10    5.10    1.53
  19   5 -10    5.64    1.29
 -17  -5  10   14.58    2.02
  17   5 -10   18.92    2.03
 -15  -5  10   60.74    3.32
  15   5 -10   65.31    3.18
  13  -5 -10   15.34    0.79
 -13  -5  10   21.84    2.24
  13   5 -10   17.17    1.81
  11  -5 -10   -0.72    0.33
  11  -5 -10    0.50    0.40
 -11  -5  10    0.84    0.98
  11   5 -10   -0.43    0.94
 -11   5  10   -0.35    0.45
   9  -5 -10    1.19    0.39
   9  -5 -10    0.98    0.48
   9  -5 -10    0.20    0.31
  -9  -5  10    0.47    1.01
   9   5 -10    1.09    0.92
  -9   5  10    0.43    0.57
   7  -5 -10    2.59    0.62
   7  -5 -10    3.05    0.72
   7  -5 -10    2.47    0.36
  -7  -5  10    3.20    1.29
  -7   5  10    2.50    0.77
  -5  -5  10    4.92    1.49
   5  -5 -10    6.26    1.00
   5  -5 -10    7.87    1.01
  -5   5  10    8.14    1.16
  -3  -5  10   15.10    1.96
   3  -5 -10   16.04    1.49
  -3   5  10   21.25    1.83
  -3   5  10   18.28    0.90
  -1  -5  10   40.96    2.91
  -1   5  10   41.64    1.61
  -1   5  10   45.83    2.50
   1  -5  10   19.61    2.26
   1   5  10   18.63    1.22
   1   5  10   21.36    2.08
   3  -5  10    1.88    1.38
   3   5  10    4.72    0.84
   3   5  10    4.00    1.24
   5  -5  10   19.17    2.39
   5   5  10   19.81    1.60
   5   5  10   19.52    2.18
   7  -5  10   39.08    3.43
   7   5  10   45.46    3.15
   7   5  10   39.64    2.24
   9  -5  10    4.13    1.84
   9  -5  10    3.76    1.69
   9   5  10    2.37    1.38
   9   5  10    3.87    1.10
  11  -5  10    2.37    1.50
  11  -5  10   -1.64    1.35
  11   5  10    0.39    1.32
  11   5  10    0.72    1.03
  13  -5  10    1.62    1.71
  13  -5  10    3.97    1.75
  13   5  10   -0.07    1.42
  13   5  10    2.08    1.26
  15  -5  10    2.46    1.88
  15   5  10    2.77    1.35
  15   5  10    0.88    1.60
  17  -5  10    1.13    1.78
  17   5  10   -0.26    1.33
  17   5  10    0.97    1.62
  19  -5  10    8.36    2.35
  19   5  10    9.47    2.08
  19   5  10    9.13    2.64
  38   6 -10    5.31    2.07
  36   6 -10   10.22    2.43
  34   6 -10    3.11    1.94
  32   6 -10   19.71    2.85
  30   6 -10   41.82    3.81
  28   6 -10    7.31    1.80
  26   6 -10   49.45    3.54
  24   6 -10   21.56    2.52
 -22  -6  10   67.95    3.99
  22   6 -10   67.15    3.66
 -20  -6  10   10.27    2.00
  20   6 -10    8.84    1.62
 -18  -6  10   86.62    4.35
  18   6 -10  102.87    4.40
 -16  -6  10    3.00    1.38
  16   6 -10    1.06    1.19
  14  -6 -10  187.32    4.70
 -14  -6  10  191.41    6.67
  14   6 -10  193.76    6.48
  12  -6 -10    0.20    0.42
  12  -6 -10    0.29    0.48
 -12  -6  10    0.95    1.16
  12   6 -10   -0.31    0.95
  10  -6 -10  145.48    4.28
  10  -6 -10  148.80    3.77
 -10  -6  10  151.16    5.64
  10  -6 -10  154.99    4.14
 -10   6  10  151.12    4.38
  10   6 -10  158.69    5.57
  -8  -6  10   11.94    1.91
   8  -6 -10   10.94    0.84
   8  -6 -10   12.36    0.98
   8  -6 -10   10.94    1.14
  -8   6  10   10.53    1.16
   8   6 -10   13.27    1.82
  -6  -6  10   13.66    1.95
   6  -6 -10   19.15    1.58
   6  -6 -10   15.29    1.21
   6  -6 -10   15.94    0.89
  -6   6  10   15.65    1.53
   4  -6 -10  113.74    3.74
  -4  -6  10  120.49    4.83
   4  -6 -10  104.91    3.05
  -4   6  10  115.26    4.07
  -2  -6  10    6.31    1.53
  -2   6  10    4.87    0.69
  -2   6  10    4.67    1.19
   0  -6  10  118.91    5.05
   0   6  10  122.88    4.64
   0   6  10  117.67    3.53
   2  -6  10    0.82    1.24
   2   6  10   -0.44    1.06
   2   6  10    0.62    0.62
   4  -6  10   46.15    3.83
   4   6  10   39.32    2.04
   4   6  10   38.07    2.89
   6  -6  10   14.37    2.30
   6   6  10   14.27    1.44
   6   6  10   12.33    2.13
   8  -6  10   41.29    3.71
   8   6  10   46.14    3.73
   8   6  10   37.82    2.37
  10  -6  10   60.32    3.88
  10  -6  10   64.89    4.26
  10   6  10   63.86    3.22
  10   6  10   59.07    3.89
  12  -6  10   12.06    2.38
  12  -6  10   12.60    2.39
  12   6  10   14.26    2.42
  12   6  10   14.21    1.85
  14  -6  10   24.98    3.17
  14  -6  10   28.77    3.31
  14   6  10   29.72    3.44
  14   6  10   27.55    2.58
  16  -6  10   15.88    2.75
  16   6  10   15.72    2.26
  16   6  10   11.00    2.53
  18  -6  10   20.80    3.12
  18   6  10   25.24    3.55
  37   7 -10    2.02    2.20
  35   7 -10    2.45    1.77
  33   7 -10    3.83    1.95
  31   7 -10    3.29    1.79
  29   7 -10    6.81    1.89
  27   7 -10    8.50    1.95
 -25  -7  10    1.46    1.65
  25   7 -10    2.95    1.46
 -23  -7  10   13.34    2.32
  23   7 -10   16.30    2.37
 -21  -7  10   -0.27    1.30
  21   7 -10   -0.17    1.08
 -19  -7  10   10.74    1.98
  19   7 -10    7.99    1.73
 -17  -7  10   21.20    2.50
  17   7 -10   28.88    2.73
 -15  -7  10   49.05    3.41
  15  -7 -10   51.16    1.72
  15  -7 -10   54.15    2.41
  15   7 -10   60.62    3.50
  13  -7 -10    2.16    0.71
  13  -7 -10    1.55    0.58
 -13  -7  10    1.57    1.37
  13   7 -10    1.46    1.16
  11  -7 -10   46.44    1.97
  11  -7 -10   44.41    1.92
 -11  -7  10   41.75    3.09
  11   7 -10   47.97    3.14
   9  -7 -10   48.72    2.15
   9  -7 -10   53.55    1.78
   9  -7 -10   50.68    2.00
  -9  -7  10   48.07    3.26
   9  -7 -10   48.76    1.76
   9   7 -10   52.21    3.12
  -9   7  10   56.59    2.37
   7  -7 -10    0.50    0.49
  -7  -7  10    0.84    1.26
   7  -7 -10    0.25    0.54
  -7   7  10    0.85    0.78
   5  -7 -10   16.20    1.39
   5  -7 -10   13.41    1.00
  -5  -7  10   12.30    2.02
  -5   7  10   13.50    1.55
  -3  -7  10    0.32    1.24
   3  -7 -10    0.74    0.67
   3  -7 -10   -0.73    0.39
  -3   7  10    0.19    0.92
  -1  -7  10   23.34    2.61
  -1   7  10   22.30    1.44
  -1   7  10   22.06    2.15
   1  -7  10   46.77    3.33
   1   7  10   44.81    2.07
   1   7  10   39.84    2.80
   3  -7  10    1.71    1.41
   3   7  10    0.61    0.74
   3   7  10    0.70    1.11
   5  -7  10   10.37    2.05
   5   7  10   12.38    1.96
   5   7  10   12.13    1.42
   7  -7  10    1.78    1.57
   7   7  10    2.63    1.04
   7   7  10    3.20    1.45
   9  -7  10   -3.06    1.22
   9   7  10    1.05    1.53
   9   7  10    0.03    0.97
  11  -7  10    7.39    2.06
  11  -7  10   11.07    2.41
  11   7  10    6.89    2.14
  11   7  10    9.09    1.60
  13  -7  10    1.53    1.76
  13  -7  10   -1.71    1.64
  13   7  10   -1.20    1.40
  15  -7  10    6.83    2.20
  15  -7  10    6.36    2.07
  15   7  10    5.43    2.05
  17  -7  10   -1.34    1.78
  17   7  10    4.36    2.08
  34   8 -10   -0.12    1.85
  32   8 -10   38.61    4.00
  30   8 -10   12.72    2.58
 -28  -8  10    9.71    2.50
  28   8 -10   17.43    2.80
 -26  -8  10   52.64    4.41
  26   8 -10   43.33    3.76
 -24  -8  10    0.27    1.61
  24   8 -10    0.54    1.38
 -22  -8  10   36.04    3.54
  22   8 -10   39.27    3.43
 -20  -8  10    6.64    2.03
  20   8 -10    7.28    1.85
 -18  -8  10   94.46    4.88
  18   8 -10   93.93    4.70
 -16  -8  10    5.01    1.80
  16   8 -10    3.95    1.68
 -14  -8  10   49.37    3.56
  14   8 -10   57.22    3.48
  12  -8 -10    8.33    1.21
 -12  -8  10    6.01    1.66
  12   8 -10    5.71    1.62
  10  -8 -10   55.78    2.65
  10  -8 -10   53.09    2.36
 -10  -8  10   51.91    3.52
  10  -8 -10   52.12    1.68
  10   8 -10   46.04    3.32
   8  -8 -10    6.35    0.84
  -8  -8  10    5.15    1.77
  -6  -8  10   60.53    3.86
  -6   8  10   65.23    3.03
  -4  -8  10   94.37    4.60
  -4   8  10   88.81    3.85
  -2  -8  10   -1.24    1.24
  -2   8  10    0.30    1.06
   0  -8  10   30.48    3.06
   0   8  10   30.18    2.63
   0   8  10   32.55    1.86
   2  -8  10    1.01    1.51
   2   8  10    0.68    0.80
   2   8  10    0.59    1.13
   4  -8  10   55.17    3.93
   4   8  10   52.29    3.44
   4   8  10   49.35    2.55
   6  -8  10    5.41    1.85
   6   8  10    7.57    1.90
   6   8  10    6.94    1.32
   8  -8  10   38.01    3.66
   8   8  10   36.45    3.88
   8   8  10   41.53    3.73
  10  -8  10   17.81    2.86
  10   8  10   14.09    2.55
  12  -8  10    7.16    2.15
  12  -8  10    2.61    1.99
  12   8  10    5.17    2.10
  14  -8  10    7.40    2.51
  14  -8  10    8.95    2.50
  14   8  10   11.90    2.69
  33   9 -10    1.01    1.97
 -31  -9  10   -2.68    1.93
  31   9 -10   -0.41    1.84
 -29  -9  10    4.95    2.40
  29   9 -10    0.00    1.80
 -27  -9  10    3.65    2.00
  27   9 -10   -1.14    1.62
 -25  -9  10    4.52    2.26
  25   9 -10    4.21    1.95
 -23  -9  10   -0.40    1.76
  23   9 -10   -2.13    1.45
 -21  -9  10   -0.90    1.59
  21   9 -10    2.42    1.73
 -19  -9  10    0.36    1.53
  19   9 -10    3.79    1.66
 -17  -9  10    3.42    1.83
  17   9 -10    4.46    1.77
 -15  -9  10    0.36    1.51
  15   9 -10    3.39    1.58
 -13  -9  10    4.25    1.66
  13   9 -10    0.58    1.33
 -11  -9  10    0.35    1.41
  11   9 -10    2.66    1.56
  -9  -9  10    3.49    1.70
   7  -9 -10   17.27    1.39
  -7  -9  10   12.72    2.21
  -5  -9  10    3.48    1.71
  -3  -9  10    9.55    2.04
  -3   9  10   10.62    1.77
  -1  -9  10    3.23    1.73
  -1   9  10    4.98    1.48
   1  -9  10    4.97    1.83
   1   9  10    3.88    1.52
   1   9  10    4.64    1.11
   3  -9  10   -0.78    1.46
   3   9  10   -0.64    1.23
   5  -9  10    0.62    1.60
   5   9  10    0.31    1.34
   7  -9  10   -1.16    1.47
   7   9  10   -0.31    1.56
   9  -9  10    3.32    1.90
   9   9  10    3.72    1.97
  11  -9  10   -0.64    1.65
  11   9  10    1.30    1.80
  13  -9  10    2.52    1.94
  13  -9  10   -3.23    1.81
  13   9  10    2.70    1.94
 -30 -10  10    5.24    2.47
  30  10 -10    6.30    2.40
 -28 -10  10    9.21    2.74
  28  10 -10   12.03    2.92
 -26 -10  10   15.93    2.93
  26  10 -10   19.30    3.05
 -24 -10  10    6.50    2.39
  24  10 -10    4.38    2.18
 -22 -10  10   56.04    4.73
  22  10 -10   46.99    4.22
 -20 -10  10    6.47    2.10
  20  10 -10    1.51    1.91
 -18 -10  10  107.66    5.62
  18  10 -10   97.22    5.23
 -16 -10  10    1.30    1.61
  16  10 -10    1.08    1.60
 -14 -10  10   10.32    2.19
  14  10 -10    8.75    2.11
 -12 -10  10   16.44    2.60
  12  10 -10   13.18    2.48
 -10 -10  10    6.27    1.95
  -8 -10  10   59.35    4.02
  -6 -10  10   31.15    3.26
  -4 -10  10  120.58    5.73
  -2 -10  10   11.09    2.24
   0 -10  10   34.93    3.55
   0  10  10   27.42    2.86
   2 -10  10   -0.51    1.50
   2  10  10   -0.56    1.36
   4 -10  10   38.49    3.72
   4  10  10   44.73    3.90
   6 -10  10   18.25    2.87
   6  10  10   12.56    2.54
   8 -10  10   71.58    4.83
   8  10  10   68.82    4.65
  10 -10  10   15.86    2.87
  10  10  10   11.84    2.84
 -25 -11  10    3.63    2.44
  25  11 -10    7.57    2.58
 -23 -11  10    3.49    2.29
  23  11 -10    1.79    2.08
 -21 -11  10    4.06    2.15
  21  11 -10    4.01    2.39
 -19 -11  10   11.46    2.54
  19  11 -10    9.35    2.42
 -17 -11  10    4.77    2.08
  17  11 -10    9.04    2.45
 -15 -11  10   -0.39    1.55
  15  11 -10    1.20    1.67
 -13 -11  10    5.90    2.11
  13  11 -10    1.59    1.67
 -11 -11  10    7.59    2.16
  -9 -11  10    4.84    1.99
  -7 -11  10   13.73    2.52
  -5 -11  10    6.08    2.00
  -3 -11  10    1.90    1.71
  -1 -11  10    1.95    1.70
   1 -11  10    0.15    1.59
   3 -11  10   29.51    3.41
   3  11  10   26.11    3.10
   5 -11  10   -1.12    1.63
   5  11  10    0.52    1.78
 -20 -12  10    1.81    2.10
  20  12 -10    2.53    2.32
 -18 -12  10   26.26    3.48
  18  12 -10   18.79    3.19
 -16 -12  10    3.25    2.10
  16  12 -10    1.38    2.09
 -14 -12  10   21.67    3.21
 -12 -12  10    8.80    2.36
 -10 -12  10   10.45    2.53
  -8 -12  10   11.53    2.59
  -6 -12  10   30.48    3.57
  -4 -12  10   23.06    3.24
  -2 -12  10   -0.20    1.71
   0 -12  10   12.49    2.64
  42   0 -11   -0.10    1.92
  42   0 -11    0.46    1.97
  40   0 -11    0.33    1.74
  40   0 -11   -0.75    1.11
  38   0 -11   -1.47    1.03
  38   0 -11   -0.91    1.67
  36   0 -11    0.72    1.04
  36   0 -11    1.36    1.57
  34   0 -11    0.25    0.93
  34   0 -11   -2.35    1.14
  32   0 -11    0.65    1.22
  32   0 -11   -0.77    0.77
  30   0 -11   -0.77    0.66
  30   0 -11   -0.57    0.98
  28   0 -11    0.16    0.97
  26   0 -11   -0.47    0.76
 -26   0  11    0.69    0.70
 -24   0  11    0.65    0.60
  24   0 -11   -0.35    0.73
 -22   0  11    0.05    0.61
  22   0 -11   -0.08    0.76
  20   0 -11    0.68    0.73
 -20   0  11    0.54    0.77
 -20   0  11    0.09    0.55
 -18   0  11   -0.18    0.51
  18   0 -11   -0.19    0.63
 -18   0  11    0.41    0.74
 -16   0  11   -0.55    0.74
 -16   0  11    1.78    0.76
  16   0 -11    0.19    0.61
 -14   0  11    0.49    0.58
 -14   0  11   -0.12    0.81
  14   0 -11   -0.35    0.58
  14   0 -11   -0.19    0.55
 -12   0  11   -0.01    0.77
  12   0 -11   -0.17    0.59
  12   0 -11   -0.48    0.49
 -12   0  11    0.18    0.49
  10   0 -11   -0.11    0.59
  10   0 -11    0.25    0.45
 -10   0  11    0.39    0.76
 -10   0  11    0.45    0.47
  -8   0  11   -0.29    0.44
  -8   0  11   -0.27    0.78
   8   0 -11   -0.44    0.59
   6   0 -11    0.27    0.76
  -6   0  11    0.33    0.48
  -6   0  11    3.41    1.20
  -4   0  11   -0.12    0.79
  -4   0  11    0.52    0.50
  -4   0  11    1.33    0.91
   4   0 -11    0.61    0.78
  -2   0  11    0.51    0.97
  -2   0  11   -0.95    0.83
   0   0  11    1.36    1.05
   0   0  11    0.49    0.96
   2   0  11   -0.14    0.91
   2   0  11   -0.51    0.90
   4   0  11    0.46    0.98
   4   0  11    0.18    1.04
   6   0  11   -0.63    1.06
   8   0  11    0.67    1.20
  10   0  11    0.59    1.23
  12   0  11   -1.83    1.36
  14   0  11   -0.17    1.32
  16   0  11    0.26    1.52
  18   0  11    1.08    1.58
  20   0  11    0.49    1.75
  41  -1 -11    0.08    1.85
  41   1 -11    1.63    1.39
  41   1 -11    0.50    1.79
  39  -1 -11   26.78    2.51
  39  -1 -11   31.86    3.56
  39   1 -11   27.33    2.74
  39   1 -11   26.56    3.24
  37  -1 -11   56.49    4.06
  37  -1 -11   55.96    3.09
  37   1 -11   56.89    4.18
  37   1 -11   58.14    3.40
  35  -1 -11   28.69    2.29
  35  -1 -11   32.51    3.27
  35   1 -11   29.33    2.65
  35   1 -11   25.62    2.88
  33  -1 -11  112.30    5.18
  33  -1 -11  110.27    4.16
  33   1 -11  113.12    5.26
  33   1 -11  118.50    4.58
  31  -1 -11   11.00    1.37
  31  -1 -11    9.49    1.78
  31   1 -11   11.66    1.88
  31   1 -11   13.31    1.65
  29  -1 -11   23.96    2.46
  29  -1 -11   20.69    1.68
  29   1 -11   23.59    2.46
 -29   1  11   22.68    1.67
  27  -1 -11   14.36    1.78
  27   1 -11   18.29    2.11
 -27   1  11   19.54    1.40
  25  -1 -11  132.88    4.87
  25   1 -11  136.38    4.98
 -25   1  11  140.71    4.12
 -23  -1  11   22.84    1.61
  23  -1 -11   18.58    1.71
  23   1 -11   20.09    1.86
 -23   1  11   22.70    1.29
  21  -1 -11   96.68    3.60
 -21  -1  11  100.06    3.44
  21   1 -11  103.61    3.84
 -21   1  11  100.06    3.01
 -19  -1  11    2.25    0.73
 -19  -1  11    2.63    0.99
  19  -1 -11    2.42    0.77
 -19   1  11    2.34    0.56
  19   1 -11    2.75    0.94
 -19   1  11    3.73    0.87
 -17  -1  11  102.73    3.60
 -17  -1  11  108.81    3.83
  17  -1 -11  110.64    3.48
  17   1 -11  111.07    3.70
 -17   1  11  101.69    3.36
 -15  -1  11    0.93    0.64
  15  -1 -11   -0.20    0.48
 -15  -1  11   -0.92    0.83
 -15   1  11   -1.28    0.62
  15   1 -11   -0.50    0.62
 -13  -1  11   54.23    2.53
  13  -1 -11   50.69    2.02
  13  -1 -11   51.45    1.85
 -13  -1  11   47.53    2.06
  13   1 -11   51.74    2.35
 -13   1  11   57.50    2.00
  13   1 -11   52.12    2.20
 -13   1  11   45.91    2.20
  11  -1 -11  214.91    5.48
  11  -1 -11  219.52    5.92
 -11  -1  11  220.74    5.92
 -11  -1  11  223.43    6.40
 -11   1  11  215.08    6.00
  11   1 -11  225.48    6.28
  11   1 -11  223.80    5.97
 -11   1  11  227.03    5.51
  -9  -1  11   82.94    3.34
   9  -1 -11   84.57    2.92
  -9  -1  11   85.11    2.80
   9   1 -11   82.68    3.17
  -9   1  11   84.50    2.35
   9   1 -11   84.57    2.85
  -9   1  11   80.70    3.06
  -7  -1  11  160.51    4.53
   7  -1 -11  161.92    4.79
  -7  -1  11  150.04    5.18
  -7   1  11  170.50    5.08
  -7   1  11  155.47    4.03
  -7   1  11  159.56    4.95
   7   1 -11  160.96    5.02
  -5  -1  11   10.46    1.06
   5  -1 -11   10.82    1.40
  -5  -1  11    8.27    1.31
  -5   1  11    7.96    1.21
  -5   1  11    9.74    0.75
  -5   1  11    9.66    1.21
  -3  -1  11  103.07    4.15
  -3  -1  11  107.02    3.50
   3  -1 -11  104.05    4.10
  -3   1  11  111.57    4.03
  -3   1  11  115.74    4.07
  -1  -1  11    2.07    0.98
  -1   1  11    6.72    1.32
  -1   1  11    4.84    1.16
   1  -1  11   62.27    3.16
   1  -1  11   64.15    3.34
   1   1  11   66.47    3.22
   1   1  11   59.85    3.04
   3  -1  11  117.81    4.78
   3  -1  11  119.40    4.91
   3   1  11  116.44    4.62
   5  -1  11   78.22    3.99
   5  -1  11   75.01    3.75
   5   1  11   78.97    3.77
   7  -1  11   29.19    2.78
   7   1  11   25.01    2.54
   9  -1  11  149.19    5.89
   9   1  11  124.78    5.46
  11  -1  11   79.02    4.36
  11   1  11   82.56    4.36
  13  -1  11    1.28    1.45
  13   1  11    0.72    1.41
  15  -1  11   71.23    4.47
  15   1  11   72.24    4.63
  17  -1  11   -0.67    1.62
  17   1  11   -0.84    1.36
  19  -1  11   50.74    4.49
  19   1  11   43.20    4.38
  21  -1  11    2.77    2.00
  21   1  11    1.48    1.77
  21   1  11   -0.53    1.72
  42  -2 -11    4.62    2.07
  42   2 -11    1.01    1.54
  42   2 -11   -1.29    1.89
  40  -2 -11    0.11    1.80
  40   2 -11    0.89    1.42
  40   2 -11   -2.06    1.62
  38  -2 -11    9.07    2.24
  38   2 -11    7.43    2.19
  38   2 -11    8.16    1.79
  36  -2 -11   -0.87    1.42
  36  -2 -11   -0.25    0.86
  36   2 -11    1.95    1.53
  36   2 -11    0.20    1.19
  34  -2 -11   -1.30    0.72
  34  -2 -11   -0.81    1.40
  34   2 -11   -0.80    0.97
  34   2 -11    0.11    1.46
  32  -2 -11    6.94    1.14
  32  -2 -11    6.92    1.68
  32   2 -11    8.15    1.47
  32   2 -11    8.27    1.96
  30  -2 -11   -0.41    0.53
  30  -2 -11   -0.43    1.17
 -30   2  11   -0.57    0.69
  30   2 -11   -0.99    1.02
  28  -2 -11    1.33    1.01
 -28   2  11    2.79    0.78
  28   2 -11    3.12    1.31
  26  -2 -11    8.54    1.45
 -26   2  11   11.29    1.03
  26   2 -11   12.62    1.78
  24  -2 -11   21.40    1.96
 -24   2  11   18.26    1.11
  24   2 -11   17.02    1.86
  22  -2 -11    0.64    0.75
 -22   2  11    0.06    0.38
  22   2 -11   -0.43    0.84
 -20  -2  11   31.00    2.25
  20  -2 -11   30.10    1.83
 -20   2  11   30.23    1.14
 -20   2  11   30.72    1.60
  20   2 -11   30.54    2.10
  18  -2 -11    9.07    1.05
 -18  -2  11    6.83    1.32
 -18  -2  11    8.58    1.16
 -18   2  11    7.06    0.55
  18   2 -11    6.80    1.13
 -18   2  11    7.83    0.90
  16  -2 -11    1.25    0.55
 -16  -2  11    2.87    0.90
 -16  -2  11    0.87    0.94
  16   2 -11    2.91    0.85
 -16   2  11    1.72    0.59
  14  -2 -11    4.27    0.63
 -14  -2  11    2.59    1.06
 -14  -2  11    5.60    0.93
  14   2 -11    2.27    0.79
  14   2 -11    5.15    1.00
 -14   2  11    5.18    0.72
  12  -2 -11   12.85    0.99
 -12  -2  11   12.54    1.68
  12  -2 -11   13.49    0.79
 -12  -2  11   16.41    1.41
 -12   2  11   12.32    1.05
  12   2 -11   13.94    1.49
  12   2 -11   11.26    1.27
 -12   2  11   13.41    1.04
 -10  -2  11    1.69    1.28
  10  -2 -11    2.97    0.68
  10  -2 -11    3.54    0.33
 -10  -2  11    3.19    0.80
  10   2 -11    4.09    0.90
 -10   2  11    3.72    0.77
  10   2 -11    4.90    1.09
  -8  -2  11    0.70    0.66
   8  -2 -11    3.36    0.91
  -8  -2  11    2.06    1.08
   8   2 -11    1.16    0.71
  -8   2  11    0.67    0.64
  -8   2  11    0.77    0.66
  -6  -2  11    3.46    1.10
  -6  -2  11    3.70    0.82
   6  -2 -11    3.24    0.85
  -6   2  11    4.39    0.91
  -6   2  11    5.21    1.04
   4  -2 -11    2.44    0.84
  -4  -2  11    1.45    1.08
  -4  -2  11    1.59    0.74
  -4   2  11    2.56    0.93
  -4   2  11    1.66    0.87
  -2  -2  11    8.69    1.54
  -2   2  11   11.41    1.47
   0  -2  11   50.96    3.00
   0   2  11   54.46    2.84
   2  -2  11    0.91    1.27
   2  -2  11    3.62    1.43
   2   2  11    2.40    1.04
   4  -2  11    0.87    1.26
   4  -2  11   -0.18    1.06
   4   2  11    0.10    0.88
   6  -2  11    8.87    1.81
   6  -2  11   12.22    2.05
   6   2  11   11.43    1.86
   8  -2  11   20.23    2.59
   8  -2  11   19.18    2.68
   8   2  11   15.55    2.28
  10  -2  11    8.15    1.89
  10   2  11    5.60    1.71
  12  -2  11    3.70    1.70
  12   2  11    2.21    1.48
  14  -2  11    1.08    1.66
  14   2  11   -1.50    1.17
  14   2  11    1.31    1.25
  16  -2  11    1.78    1.86
  16   2  11    2.39    1.69
  16   2  11    0.02    1.40
  18  -2  11   15.83    2.72
  18   2  11   12.35    2.32
  18   2  11   16.64    2.87
  20  -2  11    2.68    2.10
  20   2  11   -1.44    1.57
  20   2  11   -2.08    1.48
  41  -3 -11    6.46    2.42
  41   3 -11    9.96    2.16
  41   3 -11    8.19    2.34
  39  -3 -11   28.79    3.42
  39   3 -11   29.67    3.05
  39   3 -11   31.04    3.65
  37  -3 -11   11.25    2.27
  37   3 -11   16.47    2.34
  37   3 -11    9.23    2.23
  35  -3 -11    5.27    1.86
  35   3 -11    5.46    1.58
  35   3 -11    5.38    2.03
  33  -3 -11   39.21    2.03
  33   3 -11   35.24    3.34
  31  -3 -11    1.60    0.66
  31   3 -11    1.20    1.37
  29   3 -11   49.67    3.31
  27   3 -11    7.08    1.63
  25   3 -11  115.72    4.73
  23   3 -11    2.05    1.04
 -21  -3  11   84.86    3.87
  21   3 -11   87.68    3.73
 -21   3  11   85.42    2.73
 -19  -3  11   52.47    2.97
 -19   3  11   53.33    1.81
  19   3 -11   52.37    2.69
 -17  -3  11   53.12    2.92
  17   3 -11   54.61    2.66
 -17   3  11   55.73    1.74
  15  -3 -11  197.41    5.28
 -15  -3  11  210.77    6.46
  15   3 -11  206.36    6.16
 -15   3  11  202.26    4.82
 -15   3  11  202.43    4.99
 -13  -3  11  285.92    8.16
  13  -3 -11  278.60    6.81
  13  -3 -11  282.19    6.82
  13   3 -11  288.33    7.89
 -13   3  11  277.72    6.84
 -13   3  11  284.89    6.86
  11  -3 -11  139.88    3.82
 -11  -3  11  133.83    4.88
  11  -3 -11  141.83    3.35
 -11   3  11  146.02    3.95
 -11   3  11  140.26    3.87
  11   3 -11  144.27    4.66
   9  -3 -11  118.59    3.55
  -9  -3  11  121.46    4.51
  -9   3  11  124.50    3.71
   9   3 -11  124.17    4.17
  -9   3  11  119.63    3.60
  -7  -3  11   63.25    3.18
   7  -3 -11   68.77    2.51
  -7   3  11   69.45    2.63
  -5  -3  11    0.17    0.94
   5  -3 -11    0.57    0.64
  -5   3  11    1.93    0.76
   3  -3 -11  274.90    7.60
  -3  -3  11  274.74    8.23
  -3   3  11  278.58    7.74
  -3   3  11  268.24    6.46
  -1  -3  11   34.11    2.56
  -1   3  11   29.14    1.30
  -1   3  11   28.47    2.12
   1  -3  11  294.47    8.80
   1   3  11  271.31    8.27
   1   3  11  282.49    7.22
   3  -3  11   59.04    3.44
   3   3  11   51.43    2.96
   3   3  11   54.95    2.33
   5  -3  11   41.60    3.18
   5  -3  11   42.43    3.37
   5   3  11   39.39    2.75
   5   3  11   41.63    2.18
   7  -3  11   25.03    2.89
   7  -3  11   19.93    2.54
   7   3  11   16.11    2.12
   7   3  11   20.60    1.85
   9  -3  11   10.31    2.21
   9  -3  11   16.91    2.37
   9   3  11   18.58    1.94
   9   3  11   21.75    2.56
  11  -3  11   42.02    3.62
  11   3  11   41.88    3.63
  11   3  11   40.38    2.77
  13  -3  11    5.01    1.86
  13   3  11    5.52    1.83
  13   3  11    6.20    1.52
  15  -3  11   26.01    3.21
  15   3  11   30.95    2.85
  15   3  11   31.41    3.61
  17  -3  11    0.61    1.78
  17   3  11    0.63    1.37
  17   3  11   -0.77    1.48
  19  -3  11   14.46    2.76
  19   3  11   13.24    2.41
  19   3  11   14.31    2.84
  40  -4 -11   -0.22    1.79
  40   4 -11   -1.57    1.77
  38   4 -11   14.82    2.82
  36   4 -11    8.28    2.33
  34   4 -11    1.35    1.64
  32   4 -11    3.89    1.69
  30   4 -11    0.61    1.30
  28   4 -11    4.83    1.58
 -28   4  11    3.78    0.98
  26   4 -11   -0.03    1.01
 -26   4  11   -0.15    0.62
  24   4 -11   -0.08    1.09
 -24   4  11   -0.32    0.52
 -22  -4  11    0.06    1.07
 -22   4  11    0.10    0.42
  22   4 -11    0.46    0.98
 -22   4  11    0.25    0.48
 -20  -4  11   61.38    3.43
  20   4 -11   61.34    3.23
 -18  -4  11   55.71    3.14
  18   4 -11   57.19    2.90
 -16  -4  11   37.32    2.57
  16   4 -11   34.95    2.33
 -14  -4  11    0.28    0.98
 -14   4  11    1.69    0.37
  14   4 -11    0.34    0.81
 -12  -4  11    1.20    1.07
  12  -4 -11    0.57    0.32
 -12   4  11    0.27    0.45
  12   4 -11    0.81    0.85
 -10  -4  11   -0.24    0.93
  10  -4 -11    0.32    0.41
  10   4 -11   -0.07    0.71
 -10   4  11    0.20    0.51
   8  -4 -11    3.04    0.66
  -8  -4  11    0.75    1.04
   8  -4 -11    4.13    0.78
   8   4 -11    1.83    0.99
  -8   4  11    2.42    0.75
   6  -4 -11   63.53    2.50
   6  -4 -11   66.85    2.61
  -6  -4  11   63.78    3.29
  -6   4  11   67.62    2.71
  -4  -4  11   20.09    2.15
   4  -4 -11   23.67    1.63
  -4   4  11   21.18    1.82
  -2  -4  11    4.19    1.30
  -2   4  11    6.88    0.59
  -2   4  11    6.28    1.17
   0  -4  11    0.74    1.13
   0   4  11    0.74    0.98
   0   4  11    0.90    0.51
   2  -4  11    2.22    1.30
   2   4  11    0.86    1.13
   2   4  11    1.65    0.64
   4  -4  11    3.27    1.48
   4   4  11    0.74    0.66
   4   4  11   -0.47    0.96
   6  -4  11    2.18    1.49
   6  -4  11    3.10    1.68
   6   4  11    1.81    0.88
   6   4  11    1.39    1.16
   8  -4  11   -0.07    1.35
   8  -4  11    0.96    1.46
   8   4  11    0.45    1.15
   8   4  11    0.76    0.85
  10  -4  11   11.54    2.08
  10  -4  11    7.60    2.00
  10   4  11    6.72    1.93
  10   4  11    7.66    1.50
  12  -4  11   12.60    2.25
  12   4  11    9.63    2.07
  12   4  11   10.91    1.74
  14  -4  11   10.45    2.41
  14   4  11    7.40    1.74
  14   4  11    7.62    2.05
  16  -4  11    0.93    1.97
  16   4  11    3.72    1.52
  16   4  11    1.81    1.89
  18  -4  11    8.69    2.54
  18   4  11    8.14    2.48
  18   4  11    9.02    2.10
  39   5 -11   16.27    2.82
  37   5 -11    3.99    2.05
  35   5 -11   24.87    3.16
  33   5 -11   46.55    3.98
  31   5 -11    1.39    1.54
  29   5 -11  172.84    6.69
  27   5 -11   -1.15    1.11
 -25   5  11  221.14    5.67
  25   5 -11  217.93    7.52
 -23  -5  11    1.15    1.24
  23   5 -11   -0.19    1.09
 -21  -5  11   70.68    3.91
  21   5 -11   79.62    3.82
 -19  -5  11   38.97    2.92
  19   5 -11   42.63    2.76
 -17  -5  11   58.42    3.40
  17   5 -11   60.07    3.14
 -15  -5  11   59.27    3.41
  15   5 -11   62.99    3.14
  13  -5 -11  134.58    3.69
 -13  -5  11  133.12    5.13
 -13   5  11  134.66    3.61
  13   5 -11  134.84    4.96
  11  -5 -11   25.83    1.05
 -11  -5  11   19.90    2.17
  11  -5 -11   25.64    1.28
  11  -5 -11   24.84    0.99
 -11   5  11   29.18    1.41
  11   5 -11   24.96    2.25
   9  -5 -11   13.85    0.97
   9  -5 -11   13.15    1.14
  -9  -5  11   12.38    1.80
   9   5 -11   12.76    1.63
  -9   5  11   15.56    1.29
  -7  -5  11   53.87    3.17
   7  -5 -11   52.44    2.09
   7  -5 -11   53.85    2.26
  -7   5  11   48.16    2.27
  -5  -5  11    1.97    1.25
   5  -5 -11   -0.09    0.55
  -5   5  11    1.77    0.82
  -3  -5  11  205.91    7.03
   3  -5 -11  210.30    6.09
  -3   5  11  202.63    6.30
  -3   5  11  203.03    4.97
  -1  -5  11    3.81    1.41
  -1   5  11    2.74    1.08
  -1   5  11    3.51    0.57
   1  -5  11  162.26    6.24
   1   5  11  165.71    4.54
   1   5  11  166.63    5.82
   3  -5  11   -1.74    1.11
   3   5  11   -0.23    0.60
   3   5  11    0.55    1.08
   5  -5  11   52.03    3.59
   5   5  11   48.20    3.26
   5   5  11   48.59    2.35
   7  -5  11   49.92    3.71
   7  -5  11   42.95    3.62
   7   5  11   53.09    3.53
   7   5  11   48.81    2.51
   9  -5  11    7.89    2.12
   9  -5  11   11.15    2.36
   9   5  11    6.97    1.34
   9   5  11    6.17    1.75
  11  -5  11  109.67    5.52
  11  -5  11   97.09    5.08
  11   5  11   98.48    4.21
  11   5  11   96.14    5.00
  13  -5  11    1.26    1.68
  13  -5  11    0.71    1.66
  13   5  11    0.75    1.41
  13   5  11   -0.01    1.11
  15  -5  11   58.08    4.72
  15   5  11   57.12    4.29
  15   5  11   56.74    3.50
  17  -5  11    0.18    1.92
  17   5  11    2.31    2.08
  17   5  11    0.27    1.48
  38   6 -11   -0.10    1.71
  36   6 -11    3.42    2.03
  34   6 -11    1.44    1.89
  32   6 -11    3.47    1.70
  30   6 -11    0.16    1.41
  28   6 -11   12.16    2.08
 -26  -6  11    5.65    1.89
  26   6 -11    3.33    1.58
 -24  -6  11   -0.86    1.41
  24   6 -11    0.49    1.25
 -22  -6  11    3.98    1.54
  22   6 -11    4.49    1.37
 -20  -6  11   -0.24    1.23
  20   6 -11    0.00    1.04
 -18  -6  11   45.02    3.27
  18   6 -11   49.59    3.05
 -16  -6  11   26.28    2.65
  16   6 -11   31.91    2.69
 -14  -6  11   50.62    3.23
  14  -6 -11   48.70    1.66
  14  -6 -11   49.92    2.01
  14   6 -11   52.89    3.13
  12  -6 -11    4.92    0.65
  12  -6 -11    4.86    0.69
 -12  -6  11    4.55    1.38
 -12   6  11    3.16    0.70
  12   6 -11    1.93    1.09
 -10  -6  11   42.13    2.95
  10  -6 -11   34.70    1.34
  10  -6 -11   31.54    1.62
  10  -6 -11   36.11    1.36
  10   6 -11   36.29    2.65
 -10   6  11   34.98    1.79
  -8  -6  11   38.07    2.91
   8  -6 -11   36.80    1.30
   8  -6 -11   41.00    1.71
   8  -6 -11   39.11    1.91
  -8   6  11   39.43    2.03
   6  -6 -11    0.86    0.60
  -6  -6  11   -0.28    1.18
  -6   6  11    1.73    0.88
   4  -6 -11    5.51    1.02
  -4  -6  11    6.63    1.71
  -4   6  11    6.42    1.23
  -2  -6  11   13.97    2.02
  -2   6  11   15.08    1.79
  -2   6  11   14.59    1.00
   0  -6  11    7.34    1.71
   0   6  11    3.69    0.70
   0   6  11    4.23    1.36
   2  -6  11   39.94    3.41
   2   6  11   44.47    2.00
   2   6  11   44.54    2.89
   4  -6  11   30.29    3.14
   4   6  11   26.38    1.74
   4   6  11   21.73    2.48
   6  -6  11    6.61    1.85
   6   6  11    5.85    1.10
   6   6  11    4.38    1.56
   8  -6  11    8.34    2.15
   8   6  11    7.50    1.34
   8   6  11   10.58    2.20
  10  -6  11   11.96    2.47
  10  -6  11    9.17    2.21
  10   6  11   13.36    2.46
  10   6  11   10.99    1.65
  12  -6  11    5.56    2.08
  12  -6  11    4.91    2.05
  12   6  11    5.99    2.16
  12   6  11    6.26    1.52
  14  -6  11    0.55    1.61
  14   6  11    2.12    1.82
  16  -6  11    8.35    2.54
  16   6  11   11.77    2.68
  37   7 -11   23.46    3.51
  35   7 -11   13.29    2.82
  33   7 -11   27.66    3.32
  31   7 -11    6.30    2.02
  29   7 -11   95.21    5.18
 -27  -7  11    6.42    2.11
  27   7 -11    6.81    1.84
 -25  -7  11   16.22    2.49
  25   7 -11   13.47    2.11
 -23  -7  11   -0.77    1.50
  23   7 -11   -1.80    1.17
 -21  -7  11   64.85    4.05
  21   7 -11   66.35    3.93
 -19  -7  11    4.27    1.60
  19   7 -11    5.34    1.47
 -17  -7  11   28.90    3.02
  17   7 -11   28.59    2.76
 -15  -7  11   16.26    2.40
  15  -7 -11   17.29    1.41
  15  -7 -11   13.85    0.88
  15   7 -11   15.48    2.19
 -13  -7  11    0.85    1.32
  13  -7 -11    0.37    0.51
  13  -7 -11   -0.11    0.47
  13   7 -11   -0.39    1.03
  11  -7 -11    8.97    0.90
  11  -7 -11    6.79    0.91
 -11  -7  11    7.18    1.82
  11   7 -11    9.37    1.79
   9  -7 -11   77.67    2.48
  -9  -7  11   78.43    4.17
   9  -7 -11   76.97    2.48
   9  -7 -11   76.20    2.90
  -9   7  11   81.24    3.08
   7  -7 -11   49.80    1.78
   7  -7 -11   52.06    2.16
  -7  -7  11   48.81    3.38
  -7   7  11   51.32    2.54
   5  -7 -11   -0.99    0.36
   5  -7 -11    0.97    0.73
  -5  -7  11   -0.08    1.25
  -5   7  11    1.29    0.99
  -3  -7  11   28.20    2.97
  -3   7  11   22.52    2.09
  -1  -7  11   23.08    2.75
  -1   7  11   22.24    2.29
  -1   7  11   19.41    1.31
   1  -7  11   71.69    4.20
   1   7  11   76.60    3.83
   1   7  11   72.09    2.68
   3  -7  11    6.45    1.85
   3   7  11    8.10    1.11
   3   7  11    6.24    1.61
   5  -7  11   39.57    3.70
   5   7  11   41.81    3.16
   5   7  11   42.13    2.30
   7  -7  11   38.35    3.67
   7   7  11   39.33    3.61
   7   7  11   42.98    2.48
   9  -7  11    2.73    1.80
   9   7  11    2.44    1.69
  11  -7  11   11.65    2.56
  11  -7  11   17.74    2.87
  11   7  11   15.43    2.66
  13  -7  11   18.05    2.96
  13  -7  11   15.01    2.83
  13   7  11   17.61    3.03
  15  -7  11   24.59    3.39
  15   7  11   22.12    3.31
  34   8 -11    0.61    1.90
  32   8 -11   -0.55    1.72
 -30  -8  11    3.17    2.09
  30   8 -11    7.05    2.25
 -28  -8  11    0.99    1.90
  28   8 -11   -0.58    1.51
 -26  -8  11   -0.19    1.67
  26   8 -11    2.27    1.68
 -24  -8  11    1.09    1.66
  24   8 -11    1.01    1.54
 -22  -8  11   -2.24    1.47
  22   8 -11    0.07    1.42
 -20  -8  11    5.54    1.95
  20   8 -11    5.86    1.79
 -18  -8  11   -0.49    1.48
  18   8 -11    0.71    1.36
 -16  -8  11   16.57    2.49
  16   8 -11   13.12    2.11
 -14  -8  11    0.00    1.36
  14   8 -11   -0.99    1.30
 -12  -8  11   -1.45    1.16
  12   8 -11   -0.99    1.18
  10  -8 -11    0.08    0.39
 -10  -8  11   -0.86    1.29
  -8  -8  11    1.12    1.46
  -8   8  11    2.86    1.00
  -6  -8  11    1.79    1.51
  -6   8  11    1.42    1.02
  -4  -8  11   12.38    2.25
  -4   8  11   14.04    1.77
  -2  -8  11    6.12    1.89
  -2   8  11    5.54    1.46
   0  -8  11    6.24    1.83
   0   8  11    9.92    1.13
   0   8  11    8.93    1.82
   2  -8  11    6.91    1.96
   2   8  11    7.21    1.74
   2   8  11   11.94    1.32
   4  -8  11   -1.11    1.44
   4   8  11   -1.38    1.32
   6  -8  11    0.31    1.56
   6   8  11   -1.64    1.23
   8  -8  11    0.74    1.73
   8   8  11   -1.28    1.31
  10  -8  11    0.95    1.78
  10   8  11    3.96    1.97
  12  -8  11    4.92    2.29
  12  -8  11    4.18    2.19
  12   8  11    5.37    2.27
 -33  -9  11    6.49    2.70
  33   9 -11    8.20    2.45
 -31  -9  11   24.76    3.62
  31   9 -11   31.63    3.65
 -29  -9  11   21.77    3.41
  29   9 -11   27.06    3.47
 -27  -9  11   -0.45    1.87
  27   9 -11    0.14    1.67
 -25  -9  11   19.15    3.05
  25   9 -11   20.32    2.98
 -23  -9  11    6.52    2.16
  23   9 -11    1.82    1.76
 -21  -9  11   94.97    5.34
  21   9 -11  102.41    5.29
 -19  -9  11    2.05    1.71
  19   9 -11    1.36    1.55
 -17  -9  11   99.64    5.23
  17   9 -11   94.28    4.89
 -15  -9  11    3.12    1.66
  15   9 -11    2.64    1.66
 -13  -9  11   -0.85    1.51
  13   9 -11   -0.07    1.32
 -11  -9  11   77.98    4.50
  -9  -9  11    1.93    1.62
  -7  -9  11  269.93    9.07
   7  -9 -11  249.86    6.96
  -5  -9  11    3.92    1.79
  -5   9  11    6.46    1.48
  -3  -9  11   73.14    4.48
  -3   9  11   73.63    3.78
  -1  -9  11    2.65    1.74
  -1   9  11    6.22    1.63
   1  -9  11   14.96    2.52
   1   9  11   16.76    2.37
   3  -9  11   19.62    2.79
   3   9  11   21.48    2.63
   5  -9  11   68.78    4.53
   5   9  11   68.80    4.36
   7  -9  11   62.09    4.50
   7   9  11   53.60    4.01
   9  -9  11    9.30    2.44
   9   9  11   11.36    2.47
  11  -9  11   21.15    3.30
  11  -9  11   19.95    3.23
  11   9  11   15.00    2.86
 -30 -10  11   -0.65    2.01
  30  10 -11    0.67    2.05
 -28 -10  11    3.27    2.17
  28  10 -11    4.44    2.24
 -26 -10  11    0.43    2.00
  26  10 -11    1.45    1.94
 -24 -10  11    3.42    2.16
  24  10 -11    7.57    2.32
 -22 -10  11    3.00    1.95
  22  10 -11    3.38    1.85
 -20 -10  11    6.55    2.21
  20  10 -11   -0.14    1.60
 -18 -10  11   -1.82    1.47
  18  10 -11    3.35    1.79
 -16 -10  11   -2.02    1.40
  16  10 -11    3.18    1.84
 -14 -10  11    8.64    2.15
  14  10 -11    6.91    2.16
 -12 -10  11    1.03    1.62
 -10 -10  11   10.54    2.27
  -8 -10  11    1.05    1.64
  -6 -10  11    1.84    1.72
  -4 -10  11    2.84    1.78
  -2 -10  11    2.22    1.75
  -2  10  11    0.87    1.35
   0 -10  11    5.47    2.04
   0  10  11    5.21    1.75
   2 -10  11   -0.17    1.57
   2  10  11    0.61    1.53
   4 -10  11   15.13    2.74
   4  10  11   10.58    2.31
   6 -10  11    5.95    2.17
   6  10  11    4.26    2.04
   8 -10  11    8.36    2.44
   8  10  11   10.73    2.44
 -25 -11  11    0.36    2.07
  25  11 -11    3.93    2.15
 -23 -11  11    4.11    2.24
  23  11 -11    0.95    1.97
 -21 -11  11   19.24    3.16
  21  11 -11   22.83    3.35
 -19 -11  11    7.18    2.23
  19  11 -11    8.85    2.48
 -17 -11  11   25.34    3.29
  17  11 -11   30.82    3.67
 -15 -11  11   23.63    3.16
  15  11 -11   19.96    3.03
 -13 -11  11    2.16    1.86
 -11 -11  11   12.97    2.54
  -9 -11  11   22.10    3.06
  -7 -11  11   51.12    4.33
  -5 -11  11   -0.53    1.59
  -3 -11  11   34.48    3.61
  -1 -11  11   -0.38    1.67
   1 -11  11   21.18    3.08
   1  11  11   18.58    2.71
   3 -11  11    7.84    2.42
   3  11  11    8.65    2.17
 -20 -12  11    6.26    2.38
  20  12 -11    1.44    2.16
 -18 -12  11    2.99    2.11
  18  12 -11    3.20    2.15
 -16 -12  11   14.36    2.89
  16  12 -11   11.68    2.71
 -14 -12  11    6.76    2.32
 -12 -12  11   -0.60    1.81
 -10 -12  11    9.33    2.53
  -8 -12  11   13.33    2.80
  -6 -12  11   14.35    2.73
  -4 -12  11    1.16    1.83
  -2 -12  11   13.90    2.84
  42   0 -12   18.44    3.17
  40   0 -12   10.45    2.34
  40   0 -12   11.20    1.82
  38   0 -12    8.16    2.12
  38   0 -12    9.61    1.66
  36   0 -12  105.71    4.40
  36   0 -12  120.97    5.57
  34   0 -12    1.47    1.54
  34   0 -12    5.95    1.26
  32   0 -12   36.47    3.23
  30   0 -12   20.26    2.33
  28   0 -12   47.45    2.95
 -26   0  12    7.90    1.07
  26   0 -12    7.72    1.36
  24   0 -12   33.11    2.25
 -24   0  12   33.12    1.77
 -22   0  12  134.79    4.02
  22   0 -12  130.24    4.49
 -22   0  12  131.23    4.48
  20   0 -12   28.42    1.84
 -20   0  12   31.57    2.00
 -20   0  12   30.57    1.59
 -18   0  12   40.02    1.97
  18   0 -12   38.68    1.97
 -18   0  12   39.10    2.12
 -16   0  12  169.60    4.83
  16   0 -12  167.51    4.84
 -16   0  12  167.79    5.04
 -14   0  12   47.84    1.91
 -14   0  12   44.92    2.26
  14   0 -12   42.92    1.87
  14   0 -12   41.45    2.05
  12   0 -12    2.98    0.86
  12   0 -12    3.70    0.67
 -12   0  12    3.19    0.64
 -12   0  12    4.27    1.14
 -10   0  12  149.60    4.07
  10   0 -12  144.70    4.07
  10   0 -12  147.09    4.64
 -10   0  12  145.25    4.72
   8   0 -12   23.23    1.70
  -8   0  12   24.98    1.29
  -8   0  12   24.51    1.95
  -6   0  12  366.96   10.34
  -6   0  12  386.53    9.57
   6   0 -12  420.49   10.96
  -4   0  12   22.27    1.34
  -4   0  12   15.20    1.66
  -4   0  12   18.24    1.74
  -2   0  12  282.44    8.06
  -2   0  12  263.34    8.08
   0   0  12  111.29    4.57
   0   0  12  113.84    4.44
   2   0  12    1.88    1.19
   2   0  12    4.10    1.27
   4   0  12  122.68    5.10
   4   0  12  119.27    4.93
   6   0  12    3.24    1.39
   8   0  12   66.20    3.84
  10   0  12   24.41    2.80
  12   0  12   96.08    5.17
  14   0  12   32.77    3.51
  16   0  12   33.06    3.65
  18   0  12   10.26    2.47
  43  -1 -12    5.63    2.34
  43   1 -12    4.55    1.65
  43   1 -12    1.05    1.86
  41  -1 -12   -0.30    1.78
  41   1 -12    2.25    1.31
  41   1 -12   -0.64    1.74
  39  -1 -12    0.18    1.51
  39  -1 -12    0.77    1.05
  39   1 -12   -0.01    1.63
  39   1 -12    0.64    1.16
  37  -1 -12    2.63    1.12
  37  -1 -12    2.54    1.72
  37   1 -12    3.95    1.37
  37   1 -12    2.80    1.80
  35  -1 -12    0.85    1.42
  35  -1 -12    1.95    0.96
  35   1 -12    2.14    1.54
  33  -1 -12    3.02    1.37
  33   1 -12    3.78    1.43
  31  -1 -12    1.74    1.14
  31   1 -12   -0.11    1.15
  29  -1 -12    0.91    1.14
  29   1 -12    2.36    1.25
 -29   1  12    2.14    0.81
  27  -1 -12    3.21    1.07
 -27   1  12    5.44    0.89
  27   1 -12    4.52    1.37
  25  -1 -12    0.99    0.88
  25   1 -12    0.18    0.89
 -25   1  12    0.18    0.57
  23  -1 -12    0.86    0.77
 -23  -1  12   -0.05    0.68
  23   1 -12    1.89    0.96
 -23   1  12    0.78    0.52
  21  -1 -12    3.14    0.86
 -21  -1  12    2.36    0.79
 -21  -1  12    0.66    0.92
 -21   1  12    1.50    0.56
 -21   1  12    1.76    0.81
  21   1 -12    2.21    0.97
 -19  -1  12    2.08    0.98
  19  -1 -12    1.89    0.70
 -19  -1  12    1.42    0.68
  19   1 -12    1.41    0.81
 -19   1  12    1.93    0.55
 -19   1  12    2.99    0.79
  17  -1 -12    6.50    0.89
 -17  -1  12    5.19    1.13
 -17  -1  12    5.19    0.93
 -17   1  12    4.06    0.88
  17   1 -12    5.18    0.96
 -15  -1  12    1.05    0.87
  15  -1 -12    0.50    0.54
 -15  -1  12   -0.06    0.56
  15  -1 -12    0.48    0.51
 -15   1  12   -0.32    0.62
  15   1 -12   -0.56    0.61
  15   1 -12    1.08    0.70
 -13  -1  12    7.79    0.98
 -13  -1  12    6.45    1.26
  13  -1 -12    4.94    0.66
  13  -1 -12    5.87    0.92
  13   1 -12    5.06    0.96
 -13   1  12    6.76    0.72
 -13   1  12    5.28    0.96
  13   1 -12    5.25    0.91
  11  -1 -12   11.35    1.28
 -11  -1  12   11.36    1.08
 -11  -1  12    8.99    1.31
  11  -1 -12   11.45    0.82
  11   1 -12   11.19    1.38
 -11   1  12   13.91    1.34
  11   1 -12   12.56    1.17
 -11   1  12    9.99    0.78
  -9  -1  12  147.92    4.25
   9  -1 -12  144.64    4.48
  -9  -1  12  141.69    4.80
  -9   1  12  143.23    3.73
   9   1 -12  138.29    4.22
   9   1 -12  148.62    4.74
  -9   1  12  144.13    4.54
  -7  -1  12   88.08    3.63
  -7  -1  12   86.68    2.98
   7  -1 -12   94.05    3.34
  -7   1  12   88.07    2.52
  -7   1  12   86.14    3.35
  -7   1  12   87.46    3.39
  -5  -1  12   47.51    2.10
  -5  -1  12   48.27    2.77
   5  -1 -12   47.42    2.41
  -5   1  12   49.61    2.57
  -5   1  12   52.09    1.78
  -5   1  12   47.01    2.50
  -3  -1  12   24.44    2.28
  -3  -1  12   23.09    1.55
  -3   1  12   21.79    1.96
  -3   1  12   18.92    1.83
  -1  -1  12    1.07    1.04
  -1  -1  12    2.09    1.12
  -1   1  12    1.81    1.09
  -1   1  12    1.25    0.98
   1  -1  12    1.25    1.24
   1  -1  12    2.03    1.24
   1   1  12    2.68    1.15
   1   1  12    2.25    1.20
   3  -1  12   52.39    3.31
   3  -1  12   63.54    3.36
   3   1  12   55.71    3.18
   5  -1  12   -0.48    1.20
   5  -1  12    1.82    1.34
   5   1  12    0.38    1.16
   7  -1  12    8.01    1.98
   7   1  12    7.13    1.82
   9  -1  12    0.76    1.40
   9   1  12    2.08    1.40
  11  -1  12    2.67    1.57
  11   1  12   -0.99    1.43
  13  -1  12    0.76    1.48
  13   1  12    2.04    1.71
  15  -1  12    0.48    1.59
  15   1  12    0.00    1.57
  17  -1  12    1.81    1.96
  17   1  12    1.88    1.97
  19  -1  12   -0.06    1.76
  19   1  12    5.38    2.15
  42  -2 -12   13.92    2.67
  42   2 -12   13.96    2.85
  40  -2 -12   10.05    2.38
  40   2 -12    8.76    2.24
  38  -2 -12   25.69    3.07
  38   2 -12   23.52    3.09
  36  -2 -12  101.18    5.18
  36  -2 -12  108.56    4.02
  36   2 -12  115.40    5.54
  34  -2 -12    2.33    1.45
  34  -2 -12    3.30    0.91
  34   2 -12    0.99    1.31
  32  -2 -12   65.45    3.75
  32   2 -12   64.60    3.87
  30  -2 -12    2.04    1.23
  30   2 -12    2.15    1.32
 -30   2  12    1.85    0.81
  28  -2 -12   74.91    3.60
  28   2 -12   76.47    3.77
 -28   2  12   75.22    2.63
  26  -2 -12   24.80    2.12
 -26   2  12   22.37    1.26
  26   2 -12   20.54    2.10
  24  -2 -12   86.89    3.55
 -24   2  12   90.03    2.63
  24   2 -12   89.95    3.88
 -22  -2  12  171.92    5.75
  22  -2 -12  165.27    5.17
 -22   2  12  167.53    4.24
  22   2 -12  160.50    5.45
 -22   2  12  166.49    4.83
  20  -2 -12    9.07    1.10
 -20  -2  12    6.79    1.35
  20   2 -12    7.20    1.20
 -20   2  12    8.98    1.01
 -20   2  12    9.34    0.69
 -18  -2  12   50.02    2.75
  18  -2 -12   51.37    2.14
 -18   2  12   50.79    2.02
 -18   2  12   56.40    1.70
  18   2 -12   55.61    2.61
 -16  -2  12   20.52    1.94
 -16  -2  12   22.47    1.90
  16  -2 -12   21.92    1.25
 -16   2  12   21.16    1.33
  16   2 -12   22.13    1.72
  14  -2 -12  311.18    7.71
  14  -2 -12  300.73    7.45
 -14  -2  12  303.58    8.60
 -14  -2  12  310.94    8.20
 -14   2  12  313.03    7.78
  14   2 -12  306.74    8.26
 -14   2  12  305.65    7.61
 -12  -2  12   79.04    2.92
  12  -2 -12   76.08    2.12
  12  -2 -12   76.33    2.61
 -12  -2  12   74.28    3.31
 -12   2  12   73.11    2.66
 -12   2  12   81.61    2.69
  12   2 -12   79.40    3.01
 -10  -2  12  159.50    5.26
  10  -2 -12  158.48    4.53
 -10  -2  12  159.38    4.73
 -10   2  12  153.58    4.59
 -10   2  12  152.28    4.59
  10   2 -12  154.75    4.77
  -8  -2  12   73.28    2.79
   8  -2 -12   71.88    2.74
  -8  -2  12   72.89    3.36
  -8   2  12   70.39    2.83
  -8   2  12   73.90    2.86
   6  -2 -12   37.23    2.05
  -6  -2  12   31.52    2.35
  -6  -2  12   36.95    1.94
  -6   2  12   31.90    1.98
  -6   2  12   35.55    1.11
  -6   2  12   39.11    2.13
  -4  -2  12    0.97    1.24
  -4  -2  12   -0.77    0.92
  -4   2  12    0.10    0.36
  -4   2  12   -0.11    0.78
  -4   2  12    0.10    0.79
  -2  -2  12  143.76    5.45
  -2   2  12  156.73    5.21
   0  -2  12   85.30    4.09
   0   2  12   88.57    3.77
   2  -2  12   11.95    1.77
   2  -2  12    9.05    1.81
   2   2  12    9.75    1.65
   4  -2  12   32.67    2.95
   4  -2  12   28.64    2.78
   4   2  12   25.89    2.47
   6  -2  12   67.79    4.02
   6  -2  12   58.86    3.93
   6   2  12   57.69    3.57
   8  -2  12  137.12    5.96
   8  -2  12  126.92    5.67
   8   2  12  154.68    6.02
  10  -2  12    1.53    1.50
  10   2  12    0.40    1.30
  12  -2  12   45.73    4.07
  12   2  12   45.69    3.90
  14  -2  12    7.70    2.06
  14   2  12    6.57    1.75
  14   2  12    2.84    1.82
  16  -2  12    7.77    2.33
  16   2  12    9.14    2.00
  16   2  12   11.17    2.46
  18  -2  12    5.26    2.04
  18   2  12    3.16    1.84
  18   2  12    2.96    1.81
  41  -3 -12   -1.60    1.79
  41   3 -12    6.63    2.23
  39  -3 -12    5.09    2.02
  39   3 -12   11.88    2.59
  37  -3 -12    7.46    2.01
  37   3 -12    6.42    2.07
  35  -3 -12   -2.24    1.26
  35   3 -12    0.59    1.51
  33  -3 -12    1.20    1.36
  33   3 -12    1.81    1.50
  31  -3 -12    9.72    1.75
  31   3 -12    7.28    1.79
  29   3 -12    2.06    1.21
  27   3 -12   22.47    2.31
  25   3 -12    0.99    1.02
 -23  -3  12    2.65    1.32
 -23   3  12    4.52    0.80
  23   3 -12    4.81    1.21
 -21  -3  12   22.27    2.23
  21  -3 -12   21.05    1.65
 -21   3  12   20.76    1.20
  21   3 -12   18.68    1.85
  19  -3 -12    4.62    0.82
 -19  -3  12    1.65    1.06
 -19   3  12    4.76    0.64
  19   3 -12    2.67    0.94
  17  -3 -12    7.69    0.87
 -17  -3  12   11.99    1.66
 -17   3  12    7.60    0.46
  17   3 -12    5.34    1.10
 -17   3  12    7.70    0.72
  15  -3 -12    1.57    0.48
 -15  -3  12    2.33    1.16
 -15   3  12    2.36    0.46
  15   3 -12    2.23    0.98
 -15   3  12    1.82    0.51
  13  -3 -12   10.59    0.87
  13  -3 -12    7.96    0.57
 -13  -3  12    6.07    1.37
 -13   3  12    6.89    0.78
  13   3 -12    5.20    1.05
 -13   3  12    8.66    0.84
 -11  -3  12    1.98    1.14
  11  -3 -12    2.40    0.59
 -11   3  12    2.34    0.66
  11   3 -12    1.46    0.82
 -11   3  12    2.27    0.64
   9  -3 -12    7.62    0.97
  -9  -3  12    7.75    1.42
  -9   3  12    7.44    0.96
   9   3 -12    6.57    1.10
  -9   3  12    6.44    0.96
   7  -3 -12    0.22    0.57
  -7  -3  12    0.04    0.96
  -7   3  12   -0.59    0.61
   5  -3 -12   32.60    1.94
  -5  -3  12   32.10    2.46
  -5   3  12   31.93    2.03
  -3  -3  12    5.51    1.44
  -3   3  12    8.16    1.34
  -3   3  12    6.49    0.57
  -1  -3  12   -0.51    1.13
  -1   3  12    0.10    0.46
  -1   3  12   -0.02    0.80
   1  -3  12   22.41    2.33
   1   3  12   25.96    2.28
   1   3  12   26.77    1.49
   3  -3  12   28.60    2.92
   3  -3  12   25.16    2.59
   3   3  12   26.91    1.70
   3   3  12   23.27    2.35
   5  -3  12   26.43    2.91
   5  -3  12   25.94    2.74
   5   3  12   28.42    2.76
   5   3  12   29.37    1.99
   7  -3  12   15.35    2.41
   7  -3  12   17.49    2.42
   7   3  12   24.75    2.05
   7   3  12   19.54    2.52
   9  -3  12    6.96    1.88
   9  -3  12    8.02    2.00
   9   3  12    9.80    1.60
   9   3  12    7.85    1.84
  11  -3  12    0.01    1.47
  11   3  12    1.53    1.13
  11   3  12    0.15    1.49
  13  -3  12   -1.40    1.46
  13   3  12   -0.31    1.23
  13   3  12    0.06    1.40
  15  -3  12    4.84    2.10
  15   3  12    6.34    1.74
  15   3  12    3.49    1.97
  17  -3  12    4.30    2.20
  17   3  12    3.25    1.63
  17   3  12    3.05    1.94
  40  -4 -12   45.97    4.21
  40   4 -12   56.26    4.96
  38  -4 -12   25.15    3.17
  38   4 -12   29.54    3.41
  36   4 -12   37.63    3.73
  34   4 -12    0.80    1.41
  32   4 -12   79.64    4.48
  30   4 -12    8.51    1.89
 -28   4  12  140.36    4.39
  28   4 -12  145.01    5.78
  26   4 -12    7.57    1.59
 -26   4  12    8.24    0.98
 -24  -4  12   77.73    4.03
 -24   4  12   72.87    2.41
 -24   4  12   71.55    2.37
  24   4 -12   77.82    3.79
 -22  -4  12   17.82    2.17
 -22   4  12   21.62    0.99
  22   4 -12   26.04    2.39
 -22   4  12   20.37    0.97
 -20  -4  12   36.78    2.73
  20   4 -12   35.20    2.51
 -18  -4  12  110.83    4.62
  18   4 -12  113.04    4.40
 -16  -4  12   12.03    1.71
  16   4 -12   12.91    1.57
 -14  -4  12  164.39    5.79
  14  -4 -12  168.69    4.36
 -14   4  12  174.66    4.41
  14   4 -12  175.55    5.62
 -12  -4  12   42.14    2.76
  12  -4 -12   36.23    1.43
 -12   4  12   40.23    1.68
  12   4 -12   38.78    2.32
 -10  -4  12  166.61    5.79
  10  -4 -12  163.24    4.53
  10   4 -12  165.36    5.46
 -10   4  12  165.29    4.75
   8  -4 -12   -0.56    0.50
  -8  -4  12   -0.05    1.07
  -8   4  12    0.21    0.66
   6  -4 -12  103.36    3.56
  -6  -4  12  108.89    4.51
   6  -4 -12  107.28    3.91
  -6   4  12  103.52    3.75
  -4  -4  12  117.07    4.87
   4  -4 -12  120.53    4.12
  -4   4  12  118.62    4.26
  -2  -4  12  146.76    5.61
  -2   4  12  144.13    5.01
  -2   4  12  142.47    3.69
   0  -4  12   63.51    3.69
   0   4  12   62.57    2.17
   0   4  12   66.20    3.23
   2  -4  12  180.28    6.60
   2   4  12  174.90    6.18
   2   4  12  167.43    4.87
   4  -4  12   11.61    2.20
   4   4  12    9.17    1.85
   4   4  12   10.03    1.20
   6  -4  12    1.31    1.51
   6  -4  12    1.19    1.42
   6   4  12    1.43    1.35
   6   4  12    1.57    0.87
   8  -4  12    5.93    1.86
   8  -4  12   11.59    2.36
   8   4  12    6.27    1.72
   8   4  12    9.16    1.43
  10  -4  12    0.03    1.46
  10  -4  12    0.81    1.70
  10   4  12    1.93    1.61
  10   4  12    1.35    1.09
  12  -4  12   94.02    5.33
  12   4  12   98.26    5.31
  12   4  12   95.62    4.32
  14  -4  12    1.06    1.88
  14   4  12    0.99    1.24
  14   4  12    1.59    1.76
  16  -4  12   38.00    4.10
  16   4  12   34.55    3.12
  16   4  12   29.51    3.65
  18  -4  12    2.50    2.05
  18   4  12    0.64    1.84
  39   5 -12    1.65    1.98
  37   5 -12    5.08    2.18
  35   5 -12    6.84    2.09
  33   5 -12    0.61    1.58
  31   5 -12   18.00    2.61
  29   5 -12   14.82    2.25
  27   5 -12   -0.17    1.18
 -25  -5  12   -0.87    1.35
  25   5 -12   -0.25    1.15
 -25   5  12    0.43    0.50
 -25   5  12   -0.13    0.39
 -23  -5  12   24.64    2.56
  23   5 -12   24.34    2.37
 -21  -5  12   24.41    2.66
  21   5 -12   19.16    2.19
 -19  -5  12   -0.78    1.14
  19   5 -12    1.16    1.05
 -17  -5  12   49.02    3.17
  17   5 -12   51.34    2.98
 -15  -5  12   -0.30    1.12
  15   5 -12    1.47    1.08
 -13  -5  12    4.95    1.45
  13  -5 -12    6.99    0.61
  13   5 -12    4.92    1.36
 -13   5  12    6.67    0.78
  11  -5 -12   31.10    1.50
  11  -5 -12   30.23    1.29
 -11  -5  12   31.19    2.74
 -11   5  12   29.75    1.58
  11   5 -12   35.87    2.50
  -9  -5  12   11.69    1.78
   9  -5 -12   13.19    1.27
   9  -5 -12   13.38    1.11
  -9   5  12   14.50    1.33
  -7  -5  12   60.70    3.48
   7  -5 -12   58.63    2.41
   7  -5 -12   61.19    2.62
  -7   5  12   61.93    2.69
   5  -5 -12    5.34    1.02
  -5  -5  12    6.32    1.62
  -5   5  12    6.67    1.22
  -3  -5  12    0.09    1.22
  -3   5  12   -0.93    0.81
  -1  -5  12    1.30    1.35
  -1   5  12    1.53    1.02
  -1   5  12    0.57    0.44
   1  -5  12    0.19    1.21
   1   5  12    1.46    1.13
   1   5  12    1.75    0.61
   3  -5  12    7.14    1.77
   3   5  12    5.21    1.54
   3   5  12    6.81    0.98
   5  -5  12   -0.25    1.41
   5   5  12   -0.07    0.67
   5   5  12    0.53    1.17
   7  -5  12    3.09    1.76
   7  -5  12    2.56    1.80
   7   5  12    1.44    0.91
   7   5  12    2.34    1.37
   9  -5  12   -0.88    1.44
   9  -5  12   -1.39    1.37
   9   5  12   -0.09    1.34
   9   5  12   -0.78    0.89
  11  -5  12   -0.42    1.48
  11  -5  12    1.57    1.72
  11   5  12    1.82    1.54
  11   5  12    0.11    1.09
  13  -5  12    1.05    1.98
  13   5  12    4.84    1.95
  13   5  12    3.89    1.42
  15  -5  12    1.08    1.76
  15   5  12   -0.76    1.85
  17  -5  12    2.16    2.06
  17   5  12    6.85    2.31
  38   6 -12   -1.02    2.03
  36   6 -12   19.86    3.08
  34   6 -12    7.65    2.21
  32   6 -12   79.90    4.86
  30   6 -12   16.56    2.53
 -28  -6  12   97.11    5.16
  28   6 -12   96.73    4.81
 -26  -6  12   11.74    2.17
  26   6 -12    8.59    1.79
 -24  -6  12   86.11    4.66
  24   6 -12   83.05    4.20
 -22  -6  12   12.96    2.27
  22   6 -12   16.00    2.06
 -20  -6  12   19.63    2.35
  20   6 -12   18.59    2.17
 -18  -6  12  112.76    5.06
  18   6 -12  117.20    4.89
 -16  -6  12    2.16    1.36
  16   6 -12    2.89    1.35
  14  -6 -12   84.33    2.65
 -14  -6  12   80.88    4.14
  14   6 -12   83.77    4.00
 -12  -6  12    5.06    1.54
  12  -6 -12    6.21    0.81
  12  -6 -12    7.51    0.67
 -12   6  12    8.15    0.95
  12   6 -12    3.71    1.31
  10  -6 -12   86.50    2.71
  10  -6 -12   90.62    2.36
 -10  -6  12   88.79    4.33
  10  -6 -12   89.12    3.08
  10   6 -12   96.95    4.18
 -10   6  12   91.81    3.19
   8  -6 -12    0.75    0.64
  -8  -6  12    2.31    1.44
   8  -6 -12    0.87    0.60
  -8   6  12    0.72    0.80
  -6  -6  12   84.04    4.23
   6  -6 -12   80.56    3.04
  -6   6  12   87.54    3.44
  -4  -6  12    5.49    1.75
  -4   6  12    6.60    1.33
  -2  -6  12   42.49    3.24
  -2   6  12   41.18    1.50
  -2   6  12   38.39    2.63
   0  -6  12    8.60    2.01
   0   6  12    8.88    0.89
   0   6  12    7.65    1.56
   2  -6  12   30.97    3.29
   2   6  12   29.99    2.76
   2   6  12   31.05    1.66
   4  -6  12   26.66    3.00
   4   6  12   25.69    2.76
   4   6  12   25.24    1.72
   6  -6  12    4.15    1.86
   6   6  12    5.79    1.73
   6   6  12    3.49    1.03
   8  -6  12   57.06    4.23
   8  -6  12   59.77    4.20
   8   6  12   57.32    4.05
   8   6  12   50.17    2.76
  10  -6  12    9.97    2.40
  10  -6  12    9.47    2.45
  10   6  12    7.74    2.13
  12  -6  12   39.83    4.14
  12  -6  12   37.14    3.74
  12   6  12   37.87    3.88
  14  -6  12   -1.69    1.91
  14   6  12   -0.61    1.56
  37   7 -12    3.22    2.00
  35   7 -12   -0.06    1.77
  33   7 -12   -0.42    1.62
 -31  -7  12   -0.75    1.74
  31   7 -12    1.65    1.64
 -29  -7  12   14.97    2.63
  29   7 -12   15.25    2.43
 -27  -7  12   -1.10    1.60
  27   7 -12    0.36    1.42
 -25  -7  12    0.13    1.76
  25   7 -12   -0.17    1.29
 -23  -7  12    6.22    2.02
  23   7 -12    9.85    1.99
 -21  -7  12    3.08    1.58
  21   7 -12    3.38    1.53
 -19  -7  12   14.11    2.30
  19   7 -12    8.22    1.69
 -17  -7  12    9.51    1.87
  17  -7 -12   14.12    1.34
  17   7 -12   11.86    2.08
  15  -7 -12    1.42    0.49
  15  -7 -12    0.86    0.62
 -15  -7  12    2.99    1.45
  15   7 -12    2.40    1.33
  13  -7 -12   17.92    1.19
  13  -7 -12   18.19    1.18
 -13  -7  12   16.61    2.30
  13   7 -12   22.44    2.50
 -11  -7  12   17.93    2.35
  11  -7 -12   19.24    0.93
  11  -7 -12   18.68    1.32
  11  -7 -12   18.81    1.07
  11   7 -12   17.96    2.25
 -11   7  12   18.26    1.52
   9  -7 -12   -0.09    0.36
   9  -7 -12    0.31    0.50
  -9  -7  12   -0.70    1.34
  -9   7  12    0.20    0.72
   7  -7 -12    8.45    1.09
  -7  -7  12    6.04    1.81
   7  -7 -12    6.75    0.62
  -7   7  12    6.42    1.29
  -5  -7  12   17.88    2.63
   5  -7 -12   21.38    1.83
  -5   7  12   15.37    1.80
  -3  -7  12   41.80    3.56
  -3   7  12   46.90    2.83
  -1  -7  12   -1.85    1.19
  -1   7  12   -0.29    0.54
  -1   7  12    0.56    1.09
   1  -7  12   13.34    2.31
   1   7  12   15.27    2.16
   1   7  12   14.80    1.26
   3  -7  12   23.79    3.06
   3   7  12   22.38    2.58
   3   7  12   21.69    1.61
   5  -7  12   12.59    2.38
   5   7  12   15.37    2.42
   7  -7  12    5.44    2.00
   7   7  12    5.64    1.85
   9  -7  12   -1.79    1.44
   9  -7  12    3.09    1.99
   9   7  12   -0.98    1.49
  11  -7  12    0.92    1.84
  11  -7  12   -1.57    1.82
  11   7  12    1.19    1.70
  13  -7  12   19.88    3.22
  13  -7  12   18.12    3.12
  13   7  12   26.47    3.56
  36   8 -12   17.04    3.13
 -34  -8  12    8.11    2.61
  34   8 -12    9.64    2.53
 -32  -8  12   35.96    4.03
  32   8 -12   43.49    4.19
 -30  -8  12   -0.60    1.98
  30   8 -12    1.67    1.64
 -28  -8  12   15.10    2.80
  28   8 -12   15.41    2.59
 -26  -8  12   25.58    3.23
  26   8 -12   23.63    2.95
 -24  -8  12   19.31    2.81
  24   8 -12   20.54    2.77
 -22  -8  12   11.36    2.28
  22   8 -12   11.73    2.08
 -20  -8  12   23.85    2.94
  20   8 -12   24.10    2.67
 -18  -8  12   86.79    4.77
  18   8 -12   80.51    4.46
 -16  -8  12    9.10    2.11
  16   8 -12    7.42    1.83
 -14  -8  12   41.45    3.69
  14   8 -12   36.59    3.29
 -12  -8  12    0.83    1.51
  12   8 -12   -1.31    1.25
 -10  -8  12   63.37    3.98
  10  -8 -12   53.55    1.93
  -8  -8  12    0.03    1.45
  -8   8  12   -0.36    0.88
  -6  -8  12   95.94    4.92
  -6   8  12   85.38    3.79
  -4  -8  12   13.38    2.36
  -4   8  12   11.29    1.73
  -2  -8  12   11.56    2.35
  -2   8  12   12.70    1.89
   0  -8  12    4.95    1.90
   0   8  12    4.11    1.47
   2  -8  12   32.58    3.41
   2   8  12   35.82    3.24
   4  -8  12  117.48    5.80
   4   8  12  113.06    5.39
   6  -8  12    3.92    2.05
   6   8  12    6.07    1.94
   8  -8  12   43.87    4.29
   8   8  12   39.26    3.92
  10  -8  12   -1.00    1.86
  10  -8  12    0.16    1.86
  10   8  12    1.68    1.93
  12  -8  12   15.15    2.90
  12  -8  12   11.57    2.96
  12   8  12   12.62    2.69
 -33  -9  12   -0.24    2.08
  33   9 -12   -0.51    1.83
 -31  -9  12    0.75    2.24
  31   9 -12    3.31    2.05
 -29  -9  12    4.15    2.20
  29   9 -12   -1.82    1.65
 -27  -9  12   -0.31    1.90
  27   9 -12   -1.13    1.57
 -25  -9  12    0.76    1.92
  25   9 -12   -0.47    1.56
 -23  -9  12   -0.57    1.71
  23   9 -12   -1.04    1.47
 -21  -9  12    3.77    1.94
  21   9 -12    2.67    1.73
 -19  -9  12    3.77    1.93
  19   9 -12    0.57    1.52
 -17  -9  12   -0.96    1.46
  17   9 -12    0.64    1.51
 -15  -9  12   10.40    2.27
  15   9 -12    6.08    1.83
 -13  -9  12   -1.76    1.30
  13   9 -12    0.92    1.46
 -11  -9  12   -0.71    1.51
  -9  -9  12    5.46    2.01
  -7  -9  12    7.71    2.12
  -7   9  12    8.58    1.54
  -5  -9  12    2.89    1.83
  -5   9  12    1.53    1.23
  -3  -9  12    6.90    2.10
  -3   9  12    3.28    1.42
  -1  -9  12    4.27    1.86
  -1   9  12    5.34    1.69
   1  -9  12   12.49    2.43
   1   9  12   12.06    2.16
   3  -9  12   -0.15    1.68
   3   9  12    0.21    1.36
   5  -9  12   -1.29    1.65
   5   9  12   -1.78    1.37
   7  -9  12    9.82    2.53
   7   9  12   10.63    2.57
   9  -9  12    6.39    2.37
   9   9  12    5.64    2.36
 -30 -10  12    0.48    2.01
  30  10 -12    3.22    2.07
 -28 -10  12   19.76    3.40
  28  10 -12   21.26    3.14
 -26 -10  12    7.48    2.48
  26  10 -12    5.32    2.29
 -24 -10  12   15.14    2.81
  24  10 -12   23.28    3.21
 -22 -10  12   23.18    3.41
  22  10 -12   24.53    3.32
 -20 -10  12   37.75    3.88
  20  10 -12   38.85    3.93
 -18 -10  12   52.91    4.52
  18  10 -12   43.80    3.90
 -16 -10  12    0.92    1.67
  16  10 -12   -0.04    1.61
 -14 -10  12   10.16    2.35
  14  10 -12   11.35    2.51
 -12 -10  12    9.44    2.30
 -10 -10  12   51.30    4.24
  -8 -10  12   13.41    2.47
  -6 -10  12  101.35    5.46
  -4 -10  12    9.22    2.34
  -4  10  12    7.35    1.68
  -2 -10  12   10.81    2.40
  -2  10  12    9.47    1.93
   0 -10  12    5.70    2.12
   0  10  12    6.33    1.84
   2 -10  12    8.87    2.40
   2  10  12   11.50    2.37
   4 -10  12   61.97    4.58
   4  10  12   65.24    4.49
   6 -10  12   18.93    3.12
   6  10  12   16.90    3.00
 -25 -11  12   26.50    3.70
  25  11 -12   25.67    3.47
 -23 -11  12    3.43    2.22
  23  11 -12   -1.66    1.62
 -21 -11  12   30.70    3.83
  21  11 -12   29.64    3.73
 -19 -11  12   -0.89    1.72
  19  11 -12    2.40    2.03
 -17 -11  12    8.37    2.42
  17  11 -12    5.61    2.27
 -15 -11  12    1.48    1.83
  15  11 -12   -0.61    1.87
 -13 -11  12    5.23    2.21
 -11 -11  12   12.79    2.58
  -9 -11  12    8.19    2.39
  -7 -11  12    1.67    1.82
  -5 -11  12   16.91    2.76
  -3 -11  12    0.14    1.76
  -1 -11  12    2.74    1.99
   1 -11  12    8.10    2.46
   1  11  12    9.01    2.25
   3 -11  12    5.99    2.34
   3  11  12    5.42    2.08
 -20 -12  12   13.98    2.90
  20  12 -12   12.93    2.99
 -18 -12  12   21.10    3.34
  18  12 -12   14.65    2.95
 -16 -12  12    0.37    1.95
 -14 -12  12   18.54    3.15
 -12 -12  12    0.52    1.95
 -10 -12  12   19.90    3.23
  -8 -12  12    3.66    2.05
  -6 -12  12   11.41    2.69
  -4 -12  12   14.81    2.86
  42   0 -13   -3.03    1.47
  40   0 -13   -1.69    1.45
  38   0 -13   -1.87    1.31
  36   0 -13   -1.49    1.21
  34   0 -13    1.53    1.26
  32   0 -13   -0.91    0.98
  30   0 -13   -1.25    0.95
  28   0 -13   -0.95    0.90
 -28   0  13    0.92    0.78
  26   0 -13    0.40    0.80
 -26   0  13    0.12    0.63
 -24   0  13    0.31    0.61
  24   0 -13    0.55    0.86
 -24   0  13    0.35    0.90
 -22   0  13   -0.57    0.53
 -22   0  13   -0.17    0.88
  22   0 -13   -0.60    0.67
  20   0 -13    0.06    0.67
 -20   0  13   -0.38    0.72
 -18   0  13    0.71    0.79
  18   0 -13    0.80    0.60
 -18   0  13   -0.11    0.56
  16   0 -13    0.50    0.62
  16   0 -13    0.34    0.55
 -16   0  13   -0.06    0.56
 -16   0  13    0.53    0.83
 -14   0  13    0.48    0.55
 -14   0  13   -1.10    0.81
  14   0 -13   -0.47    0.54
  14   0 -13    0.30    0.51
 -12   0  13   -0.65    0.79
  12   0 -13   -0.34    0.59
  12   0 -13    0.59    0.52
 -12   0  13   -0.64    0.44
  10   0 -13   -0.75    0.58
 -10   0  13   -0.19    0.47
 -10   0  13    0.67    0.92
  -8   0  13   -0.63    0.77
  -8   0  13    0.03    0.46
  -6   0  13   -0.62    0.48
  -6   0  13    0.69    0.91
  -4   0  13    0.47    1.02
  -4   0  13   -0.48    0.49
  -4   0  13   -0.10    0.85
  -2   0  13    0.69    1.09
  -2   0  13    0.88    1.09
   0   0  13    0.37    1.04
   0   0  13    0.21    1.09
   2   0  13   -0.45    1.14
   2   0  13    0.00    1.11
   4   0  13   -0.38    1.19
   6   0  13   -1.30    1.20
   8   0  13   -0.50    1.39
  10   0  13   -1.16    1.32
  12   0  13   -0.62    1.52
  14   0  13   -0.63    1.53
  16   0  13   -0.19    1.59
  18   0  13    1.65    1.82
  43  -1 -13    3.69    2.05
  43   1 -13   -1.35    1.75
  41  -1 -13    4.39    1.91
  41   1 -13    7.76    2.27
  39  -1 -13   75.74    4.76
  39   1 -13   85.40    4.98
  37  -1 -13   10.57    2.16
  37   1 -13    9.94    2.20
  35  -1 -13   97.50    4.86
  35   1 -13  102.78    4.95
  33  -1 -13    7.50    1.71
  33   1 -13    9.32    1.76
  31  -1 -13   40.23    2.93
 -31   1  13   38.57    2.11
  31   1 -13   38.42    2.84
  29  -1 -13    3.98    1.20
  29   1 -13    5.98    1.45
 -29   1  13    7.46    1.00
  27  -1 -13   57.93    3.04
  27   1 -13   61.16    3.26
 -27   1  13   62.55    2.39
  25  -1 -13  170.15    5.61
 -25  -1  13  177.02    5.87
 -25   1  13  169.84    4.80
 -25   1  13  173.86    5.42
  25   1 -13  180.35    5.85
  23  -1 -13    1.05    0.75
 -23  -1  13    1.46    0.79
 -23  -1  13   -0.14    1.00
 -23   1  13    0.80    0.53
 -23   1  13    0.77    0.81
  23   1 -13    1.73    0.97
 -21  -1  13   78.61    3.34
  21  -1 -13   73.48    2.95
 -21  -1  13   82.86    2.97
 -21   1  13   76.64    2.52
  21   1 -13   71.96    3.11
 -21   1  13   72.97    2.91
  19  -1 -13   18.65    1.40
 -19  -1  13   16.24    1.66
 -19   1  13   21.71    1.54
  19   1 -13   21.01    1.72
 -17  -1  13   99.38    3.74
 -17  -1  13   95.65    3.38
  17  -1 -13   94.08    3.09
 -17   1  13   94.25    3.28
  17   1 -13   95.09    3.38
  15  -1 -13   -0.07    0.54
 -15  -1  13    0.68    0.65
 -15  -1  13   -0.02    0.94
  15  -1 -13    1.05    0.53
  15   1 -13    0.95    0.77
 -15   1  13    1.01    0.79
  15   1 -13    0.59    0.66
 -15   1  13    1.01    0.54
 -13  -1  13  166.53    5.37
 -13  -1  13  161.97    4.76
  13  -1 -13  162.24    4.33
  13  -1 -13  161.99    4.82
 -13   1  13  165.42    4.96
 -13   1  13  162.67    4.34
  13   1 -13  164.55    5.14
  13   1 -13  165.75    4.82
 -11  -1  13  307.29    7.93
  11  -1 -13  304.17    7.43
 -11  -1  13  308.46    8.61
  11  -1 -13  310.01    8.16
 -11   1  13  312.74    7.46
 -11   1  13  299.94    8.21
  11   1 -13  305.86    7.99
  -9  -1  13  107.15    4.21
  -9  -1  13  111.67    3.53
   9  -1 -13  113.08    3.83
  -9   1  13  107.99    3.03
  -9   1  13  112.62    3.86
  -9   1  13  113.14    3.96
  -7  -1  13   37.36    2.45
  -7  -1  13   43.29    1.96
   7  -1 -13   38.15    2.35
  -7   1  13   41.95    2.31
  -7   1  13   38.84    2.27
  -7   1  13   38.37    1.50
  -5  -1  13  154.63    4.63
  -5  -1  13  153.70    5.40
  -5   1  13  151.35    5.10
  -5   1  13  150.41    5.17
  -5   1  13  154.26    4.19
  -3  -1  13   62.23    3.34
  -3  -1  13   67.99    2.75
  -3   1  13   75.56    3.43
  -3   1  13   69.52    3.23
  -1  -1  13    0.06    1.13
  -1  -1  13    0.57    1.16
  -1   1  13    0.61    1.05
  -1   1  13    0.06    0.97
   1  -1  13  125.51    4.97
   1  -1  13  120.29    5.10
   1   1  13  116.68    4.84
   3  -1  13    6.36    1.71
   3  -1  13    5.14    1.58
   3   1  13    4.73    1.42
   5  -1  13   45.66    3.53
   5  -1  13   60.85    3.70
   5   1  13   58.01    3.63
   7  -1  13    5.45    1.86
   7   1  13    4.76    1.79
   9  -1  13  105.98    5.24
   9   1  13  102.87    5.19
  11  -1  13   17.99    2.59
  11   1  13   16.44    2.60
  13  -1  13   15.79    2.76
  13   1  13   13.12    2.49
  15  -1  13   14.90    2.76
  15   1  13   11.10    2.59
  17  -1  13   23.97    3.34
  17   1  13   12.60    2.80
  42  -2 -13    0.36    1.69
  42   2 -13    2.49    1.88
  40  -2 -13    2.50    1.78
  40   2 -13   -0.76    1.54
  38  -2 -13    5.52    1.95
  38   2 -13    4.19    1.86
  36  -2 -13   10.96    2.13
  36   2 -13   11.46    2.24
  34  -2 -13    7.24    1.80
  34   2 -13    6.23    1.78
  32  -2 -13    5.51    1.44
  32   2 -13    3.73    1.45
  30  -2 -13    1.82    1.11
  30   2 -13    0.74    1.24
 -30   2  13    0.97    0.67
  28  -2 -13   10.53    1.57
  28   2 -13   12.39    1.92
 -28   2  13   11.34    1.03
  26  -2 -13   22.54    2.04
 -26   2  13   20.90    1.16
  26   2 -13   24.04    2.36
 -24  -2  13   -0.99    1.00
  24  -2 -13    0.73    0.75
 -24   2  13    0.00    0.41
 -24   2  13   -0.72    0.68
  24   2 -13    0.17    0.86
 -22  -2  13    1.26    1.18
  22  -2 -13    3.45    0.89
 -22   2  13    3.68    0.51
 -22   2  13    3.75    0.81
  22   2 -13    2.52    0.94
 -20  -2  13   18.48    1.91
  20  -2 -13   21.76    1.47
 -20   2  13   20.18    1.37
  20   2 -13   15.05    1.63
 -20   2  13   20.11    0.99
  18  -2 -13   -0.39    0.47
 -18  -2  13    0.81    1.01
 -18   2  13   -0.46    0.55
  18   2 -13    0.09    0.76
 -16  -2  13    1.46    1.01
  16  -2 -13    1.06    0.50
  16  -2 -13    0.98    0.49
 -16   2  13    0.67    0.61
  16   2 -13    0.01    0.71
 -14  -2  13   -0.48    0.63
  14  -2 -13    0.12    0.36
  14  -2 -13   -0.59    0.42
 -14  -2  13    1.71    1.05
  14   2 -13    0.16    0.71
 -14   2  13   -0.06    0.57
 -14   2  13   -0.58    0.52
  12  -2 -13    0.11    0.26
 -12  -2  13   -0.80    0.58
 -12  -2  13   -0.09    1.00
  12  -2 -13    0.66    0.57
 -12   2  13    0.12    0.59
  12   2 -13    0.67    0.68
 -12   2  13   -0.64    0.58
  10  -2 -13   30.91    1.72
 -10  -2  13   31.98    1.85
 -10  -2  13   28.20    2.22
 -10   2  13   31.46    1.82
  10   2 -13   29.10    1.84
 -10   2  13   31.43    1.84
   8  -2 -13    7.17    1.13
  -8  -2  13    5.39    0.94
  -8  -2  13    6.92    1.44
  -8   2  13    6.55    1.12
  -8   2  13    5.61    1.06
   6  -2 -13    9.38    1.40
  -6  -2  13    8.46    1.53
  -6   2  13    7.27    1.24
  -6   2  13    8.44    0.60
  -6   2  13    7.29    1.25
  -4  -2  13    0.64    1.03
  -4   2  13    2.99    1.13
  -4   2  13    1.37    0.44
  -4   2  13    1.94    1.02
  -2  -2  13   12.50    1.80
  -2   2  13   15.40    1.85
   0  -2  13    2.48    1.28
   0  -2  13    3.33    1.30
   0   2  13    4.29    1.31
   2  -2  13    7.76    1.84
   2  -2  13    2.63    1.48
   2   2  13    3.32    1.24
   4  -2  13   32.90    3.32
   4  -2  13   31.34    2.95
   4   2  13   33.70    2.99
   6  -2  13   26.06    2.97
   6  -2  13   22.93    2.61
   6   2  13   26.95    2.86
   8  -2  13    1.22    1.64
   8   2  13   -1.81    1.15
  10  -2  13    3.54    1.76
  10   2  13    5.84    1.81
  12  -2  13    7.85    2.34
  12   2  13   11.92    2.38
  14  -2  13    1.97    1.90
  14   2  13   -1.45    1.24
  14   2  13    0.18    1.70
  16  -2  13    7.49    2.42
  16   2  13    8.33    2.07
  16   2  13    4.46    2.21
  43  -3 -13   23.80    3.27
  43   3 -13   24.41    3.41
  41  -3 -13   11.27    2.55
  41   3 -13    8.25    2.43
  39  -3 -13   52.77    4.37
  39   3 -13   41.94    3.88
  37  -3 -13    1.80    1.68
  37   3 -13    2.36    1.61
  35  -3 -13   30.20    2.95
  35   3 -13   32.41    3.26
  33  -3 -13   -1.19    1.05
  33   3 -13    0.43    1.43
  31  -3 -13   25.39    2.49
  31   3 -13   22.82    2.58
  29  -3 -13   11.74    1.75
  29   3 -13   12.44    1.94
  27  -3 -13   42.15    2.62
  27   3 -13   49.89    3.14
 -25  -3  13  118.30    4.96
  25  -3 -13  117.45    4.25
  25   3 -13  115.78    4.68
 -25   3  13  114.09    3.66
  23  -3 -13    7.92    1.18
 -23  -3  13   10.38    1.78
 -23   3  13    9.64    0.95
  23   3 -13    7.11    1.38
  21  -3 -13  101.75    3.41
 -21  -3  13   93.30    4.16
 -21   3  13   93.79    2.89
  21   3 -13   93.62    3.92
  19  -3 -13    0.47    0.55
 -19  -3  13   -0.24    1.03
 -19   3  13    1.32    0.52
 -19   3  13    1.17    0.23
  19   3 -13    3.55    1.06
  17  -3 -13  189.18    5.00
 -17  -3  13  196.16    6.32
 -17   3  13  185.43    4.88
 -17   3  13  190.23    4.69
  17   3 -13  179.37    5.84
  15  -3 -13    6.81    0.73
  15  -3 -13    5.06    0.56
 -15  -3  13    4.19    1.24
 -15   3  13    6.00    0.77
 -15   3  13    5.68    0.72
  15   3 -13    4.19    1.07
 -13  -3  13  263.71    7.89
  13  -3 -13  261.08    6.66
 -13   3  13  258.30    6.73
 -13   3  13  260.41    6.73
  13   3 -13  257.64    7.46
 -11  -3  13   37.40    2.64
  11  -3 -13   39.25    1.77
 -11   3  13   39.08    1.89
  11   3 -13   40.93    2.29
 -11   3  13   37.69    1.85
   9  -3 -13   66.76    2.61
  -9  -3  13   58.73    3.21
  -9   3  13   65.93    2.62
  -9   3  13   61.42    2.59
  -7  -3  13   75.73    3.70
   7  -3 -13   80.01    3.05
  -7   3  13   78.52    3.17
  -5  -3  13   85.71    3.97
  -5   3  13   75.41    3.26
  -3  -3  13  158.62    5.84
  -3   3  13  150.69    3.94
  -3   3  13  153.50    5.23
  -1  -3  13   13.69    1.94
  -1   3  13   15.31    1.85
  -1   3  13   15.09    1.07
   1  -3  13   64.39    3.78
   1   3  13   62.10    2.42
   1   3  13   60.81    3.39
   3  -3  13    0.02    1.37
   3  -3  13   -1.20    1.30
   3   3  13    0.77    1.22
   3   3  13    1.14    0.80
   5  -3  13   29.34    3.11
   5  -3  13   26.97    2.91
   5   3  13   32.23    2.08
   5   3  13   30.81    2.87
   7  -3  13    0.02    1.39
   7  -3  13   -1.14    1.34
   7   3  13   -0.26    1.32
   7   3  13   -0.33    0.90
   9  -3  13   37.53    3.82
   9  -3  13   34.44    3.45
   9   3  13   36.68    2.59
   9   3  13   40.91    3.60
  11  -3  13   14.94    2.69
  11   3  13   12.28    2.41
  11   3  13    9.24    1.73
  13  -3  13   13.53    2.64
  13   3  13   16.94    2.18
  13   3  13   18.85    2.92
  15  -3  13   10.83    2.73
  15   3  13   16.49    2.41
  15   3  13    8.88    2.59
  17  -3  13   13.31    2.81
  17   3  13   10.68    2.45
  17   3  13    8.78    2.41
  42  -4 -13   -0.69    1.73
  42   4 -13    0.57    2.02
  40  -4 -13    1.42    1.87
  40   4 -13    2.09    2.02
  38  -4 -13    5.25    1.93
  38   4 -13    5.63    1.99
  36  -4 -13    7.88    1.96
  36   4 -13    3.26    1.90
  34   4 -13   14.54    2.47
  32   4 -13   17.00    2.49
  30   4 -13    0.93    1.27
 -28  -4  13    1.91    1.61
  28   4 -13    3.76    1.43
 -28   4  13    4.66    0.89
 -26  -4  13    4.37    1.56
 -26   4  13    3.63    0.70
 -26   4  13    2.85    0.73
  26   4 -13    4.90    1.43
 -24  -4  13    6.90    1.66
  24   4 -13    7.74    1.59
 -24   4  13    9.08    0.81
 -22  -4  13   -0.37    1.09
  22   4 -13   -0.12    0.98
 -20  -4  13   35.49    2.76
  20   4 -13   32.94    2.45
  18  -4 -13   -0.48    0.46
 -18  -4  13   -0.95    1.11
  18   4 -13    0.13    0.89
 -16  -4  13    0.56    1.21
  16  -4 -13    0.54    0.43
 -16   4  13    0.68    0.38
  16   4 -13    0.13    0.81
  14  -4 -13    1.75    0.44
  14  -4 -13    0.86    0.30
 -14  -4  13    1.12    1.20
  14   4 -13    0.26    0.90
 -14   4  13    1.08    0.50
  12  -4 -13   23.25    1.24
 -12  -4  13   23.18    2.37
  12   4 -13   19.20    1.83
 -12   4  13   24.98    1.43
 -10  -4  13   57.59    3.29
  10  -4 -13   51.27    2.15
  10   4 -13   59.19    2.93
 -10   4  13   54.44    2.35
  -8  -4  13    0.85    1.17
   8  -4 -13    0.19    0.61
  -8   4  13   -0.02    0.68
  -6  -4  13   27.07    2.56
   6  -4 -13   33.47    1.99
  -6   4  13   36.92    2.23
  -4  -4  13    2.59    1.34
  -4   4  13    1.05    0.99
  -2  -4  13   10.40    2.01
  -2   4  13   10.67    0.75
  -2   4  13    9.78    1.59
   0  -4  13    0.50    1.22
   0   4  13    0.72    1.09
   0   4  13    0.73    0.52
   2  -4  13   18.93    2.54
   2   4  13   20.41    1.44
   2   4  13   20.39    2.33
   4  -4  13   14.26    2.32
   4  -4  13   21.05    2.59
   4   4  13   18.47    2.45
   4   4  13   19.94    1.63
   6  -4  13    2.01    1.63
   6  -4  13    3.19    1.67
   6   4  13    4.84    1.11
   6   4  13    1.06    1.33
   8  -4  13   -2.40    1.31
   8  -4  13    2.09    1.81
   8   4  13    1.07    0.94
   8   4  13   -0.44    1.39
  10  -4  13    0.44    1.69
  10  -4  13    0.73    1.82
  10   4  13    2.31    1.18
  10   4  13    1.33    1.53
  12  -4  13    7.13    2.22
  12   4  13    6.58    1.60
  12   4  13    7.14    2.06
  14  -4  13    0.37    1.65
  14   4  13    0.12    2.00
  14   4  13    0.12    1.58
  16  -4  13   10.13    2.72
  16   4  13    2.43    1.99
  41  -5 -13    0.62    1.90
  41   5 -13    2.09    1.96
  39   5 -13   16.95    2.87
  37   5 -13    2.95    1.91
  35   5 -13   23.00    3.10
  33   5 -13    5.88    1.86
  31   5 -13   65.67    4.14
 -29  -5  13   56.02    3.92
  29   5 -13   53.19    3.64
 -27  -5  13   81.79    4.59
  27   5 -13   85.86    4.37
 -27   5  13   87.00    2.51
 -25  -5  13   28.40    2.81
  25   5 -13   38.53    3.14
 -23  -5  13   29.16    2.76
  23   5 -13   30.75    2.76
 -21  -5  13  126.31    5.40
  21   5 -13  138.30    5.28
 -19  -5  13    3.85    1.46
  19   5 -13    5.91    1.33
 -17  -5  13  267.66    8.43
  17   5 -13  253.23    7.98
 -15  -5  13    2.37    1.29
  15  -5 -13    1.91    0.46
  15   5 -13    1.46    1.14
 -15   5  13    2.35    0.53
 -13  -5  13   85.49    4.11
  13  -5 -13   83.74    2.37
  13   5 -13   83.16    3.78
 -13   5  13   82.87    2.75
  11  -5 -13   -0.06    0.50
 -11  -5  13    1.00    1.22
 -11   5  13   -0.79    0.58
  11   5 -13    0.69    0.89
   9  -5 -13   50.69    2.29
  -9  -5  13   53.06    3.32
   9  -5 -13   52.82    2.16
  -9   5  13   52.68    2.41
  -7  -5  13   24.67    2.60
   7  -5 -13   23.02    1.59
  -7   5  13   21.85    1.83
  -5  -5  13   53.20    3.52
  -5   5  13   59.25    2.92
  -3  -5  13    9.93    1.94
  -3   5  13   10.65    1.59
  -1  -5  13   88.67    4.55
  -1   5  13   85.39    3.93
  -1   5  13   84.14    2.50
   1  -5  13   29.09    3.06
   1   5  13   23.43    2.43
   1   5  13   28.52    1.47
   3  -5  13    4.58    1.77
   3   5  13    8.26    1.05
   3   5  13    5.19    1.54
   5  -5  13   39.39    3.62
   5   5  13   47.83    3.42
   5   5  13   42.01    2.25
   7  -5  13   20.56    3.03
   7  -5  13   17.48    2.60
   7   5  13   12.35    2.27
   7   5  13   15.68    1.66
   9  -5  13   59.61    4.21
   9  -5  13   53.59    4.61
   9   5  13   57.15    3.96
   9   5  13   51.78    2.93
  11  -5  13   34.39    3.86
  11  -5  13   27.04    3.36
  11   5  13   27.41    3.22
  13  -5  13   43.48    4.24
  13   5  13   33.20    3.81
  15  -5  13    8.65    2.70
  15   5  13    8.61    2.39
  40   6 -13    1.58    2.18
  38   6 -13    6.69    2.37
  36   6 -13   17.82    2.84
  34   6 -13    5.47    2.03
 -32  -6  13    4.53    2.07
  32   6 -13    2.02    1.62
 -30  -6  13    1.43    1.79
  30   6 -13    2.77    1.59
 -28  -6  13    3.17    1.93
  28   6 -13    2.80    1.64
 -26  -6  13   -0.77    1.50
  26   6 -13   -0.62    1.22
 -24  -6  13   -0.24    1.36
  24   6 -13   -1.09    1.04
 -22  -6  13    6.76    1.77
  22   6 -13    6.69    1.66
 -20  -6  13   16.44    2.26
  20   6 -13   21.60    2.42
 -18  -6  13    4.97    1.72
  18   6 -13   10.20    1.81
 -16  -6  13    0.15    1.17
  16  -6 -13    2.70    0.60
  16   6 -13    1.29    1.23
 -14  -6  13   -0.80    1.11
  14  -6 -13    0.64    0.41
 -14   6  13    1.30    0.59
  14   6 -13    0.43    1.10
  12  -6 -13   14.18    0.87
  12  -6 -13   16.71    1.31
 -12  -6  13   17.42    2.42
 -12   6  13   15.27    1.31
  12   6 -13   16.21    2.13
 -10  -6  13    2.87    1.59
  10  -6 -13    3.33    0.69
  10  -6 -13    2.99    0.82
 -10   6  13    2.31    0.84
  -8  -6  13    7.25    1.91
   8  -6 -13   10.71    1.15
  -8   6  13    7.32    1.19
  -6  -6  13    1.87    1.50
   6  -6 -13    0.56    0.70
  -6   6  13    0.51    0.89
  -4  -6  13   13.05    2.20
  -4   6  13   14.66    1.80
  -2  -6  13   18.13    2.48
  -2   6  13   19.51    0.92
  -2   6  13   16.35    1.99
   0  -6  13   18.31    2.56
   0   6  13   18.88    2.25
   0   6  13   21.87    1.23
   2  -6  13   72.80    4.51
   2   6  13   76.93    2.71
   2   6  13   79.06    4.18
   4  -6  13   -2.56    1.36
   4   6  13   -0.83    1.30
   4   6  13   -0.39    0.72
   6  -6  13    3.30    1.90
   6   6  13    2.32    1.63
   8  -6  13   14.87    2.74
   8  -6  13    9.95    2.45
   8   6  13   12.07    2.46
  10  -6  13    2.68    2.00
  10  -6  13   -1.75    1.65
  10   6  13    1.36    1.74
  12  -6  13    5.60    2.25
  12  -6  13    2.82    2.08
  12   6  13    2.69    2.10
  14  -6  13    4.64    2.48
  14   6  13    4.42    2.36
  37   7 -13   -0.53    1.83
 -35  -7  13   27.59    3.78
  35   7 -13   17.46    2.91
 -33  -7  13   13.78    2.84
  33   7 -13    9.25    2.24
 -31  -7  13   47.00    4.35
  31   7 -13   52.65    4.43
 -29  -7  13   46.20    4.18
  29   7 -13   40.08    3.60
 -27  -7  13   16.39    2.76
  27   7 -13   14.46    2.25
 -25  -7  13   37.21    3.54
  25   7 -13   49.90    3.91
 -23  -7  13   22.30    2.83
  23   7 -13   21.74    2.53
 -21  -7  13  129.06    5.76
  21   7 -13  125.36    5.49
 -19  -7  13   -0.39    1.41
  19   7 -13   -0.29    1.22
 -17  -7  13  109.79    5.21
  17   7 -13  107.95    4.87
 -15  -7  13   16.96    2.53
  15   7 -13   16.59    2.12
  13  -7 -13  100.82    3.31
  13  -7 -13   96.62    3.04
 -13  -7  13   96.67    4.80
  13   7 -13   96.79    4.61
 -13   7  13   97.30    3.26
  11  -7 -13    1.57    0.43
  11  -7 -13    2.55    0.75
  11  -7 -13    2.20    0.78
 -11  -7  13   -1.64    1.30
 -11   7  13    0.96    0.79
  -9  -7  13   62.14    3.94
  -9   7  13   53.15    2.66
  -7  -7  13   31.13    3.07
  -7   7  13   31.26    2.23
  -5  -7  13    2.65    1.60
  -5   7  13    1.71    1.12
  -3  -7  13   88.85    4.76
  -3   7  13   79.26    3.84
  -1  -7  13    0.20    1.60
  -1   7  13    1.05    1.20
   1  -7  13   30.76    3.40
   1   7  13   38.14    3.29
   3  -7  13    5.14    2.02
   3   7  13    4.16    1.72
   5  -7  13   43.36    4.16
   5   7  13   42.03    3.65
   7  -7  13    9.70    2.39
   7   7  13   15.70    2.57
   9  -7  13   11.99    2.72
   9  -7  13    6.78    2.33
   9   7  13    8.29    2.13
  11  -7  13   -0.41    1.80
  11  -7  13   -2.55    1.85
  11   7  13    2.36    1.76
 -36  -8  13    1.24    2.31
  36   8 -13    3.06    2.14
 -34  -8  13    1.36    2.29
  34   8 -13   -0.80    1.79
 -32  -8  13    5.55    2.43
  32   8 -13    5.92    2.19
 -30  -8  13    0.16    2.15
  30   8 -13    0.15    1.66
 -28  -8  13   18.50    2.94
  28   8 -13   15.15    2.50
 -26  -8  13    4.53    2.18
  26   8 -13    3.03    1.68
 -24  -8  13    3.23    1.97
  24   8 -13    1.68    1.64
 -22  -8  13   -1.46    1.65
  22   8 -13   -0.73    1.37
 -20  -8  13    3.51    1.88
  20   8 -13    2.21    1.64
 -18  -8  13   26.93    3.02
  18   8 -13   27.43    2.87
 -16  -8  13    9.32    2.22
  16   8 -13    7.92    1.93
 -14  -8  13    3.57    1.73
  14   8 -13    4.17    1.57
 -12  -8  13    1.71    1.65
  12   8 -13    0.84    1.31
 -10  -8  13    8.37    2.08
 -10   8  13    5.43    1.18
  -8  -8  13   12.69    2.40
  -8   8  13   11.97    1.65
  -6  -8  13   12.35    2.36
  -6   8  13    9.82    1.60
  -4  -8  13    8.39    2.14
  -4   8  13    8.61    1.69
  -2  -8  13    5.04    1.94
  -2   8  13    3.72    1.46
   0  -8  13   -0.68    1.48
   0   8  13    0.26    1.37
   2  -8  13    2.24    1.79
   2   8  13    4.27    1.64
   4  -8  13    3.91    1.99
   4   8  13    0.60    1.56
   6  -8  13    2.01    1.77
   6   8  13    0.76    1.66
   8  -8  13    1.59    1.98
   8   8  13   -0.67    1.60
  10  -8  13    7.42    2.50
  10  -8  13    3.00    2.20
  10   8  13    3.91    2.12
 -33  -9  13    1.50    2.39
  33   9 -13    1.62    1.91
 -31  -9  13   46.11    4.71
  31   9 -13   56.10    4.83
 -29  -9  13    3.41    2.23
  29   9 -13    7.11    2.26
 -27  -9  13    0.75    1.96
  27   9 -13    2.76    2.07
 -25  -9  13   10.06    2.51
  25   9 -13   10.59    2.23
 -23  -9  13   33.30    3.76
  23   9 -13   30.12    3.46
 -21  -9  13   62.30    4.47
  21   9 -13   53.51    3.97
 -19  -9  13    3.79    1.93
  19   9 -13    2.64    1.62
 -17  -9  13   36.14    3.66
  17   9 -13   33.01    3.40
 -15  -9  13   19.76    2.92
  15   9 -13   19.94    2.64
 -13  -9  13   34.77    3.54
 -11  -9  13   31.36    3.35
  -9  -9  13  105.16    5.51
  -7  -9  13   59.18    4.20
  -7   9  13   59.46    3.27
  -5  -9  13    5.95    1.98
  -5   9  13    9.36    1.76
  -3  -9  13    0.75    1.74
  -3   9  13    5.74    1.64
  -1  -9  13    3.82    1.93
  -1   9  13    6.22    1.78
   1  -9  13   39.42    3.86
   1   9  13   43.73    3.63
   3  -9  13   -0.42    1.68
   3   9  13   -1.87    1.33
   5  -9  13   76.29    5.09
   5   9  13   78.70    4.94
   7  -9  13   -0.89    1.79
   7   9  13   -1.24    1.77
 -30 -10  13   10.24    2.83
  30  10 -13    4.80    2.30
 -28 -10  13    7.60    2.68
  28  10 -13    8.45    2.43
 -26 -10  13    0.16    2.01
  26  10 -13    2.09    1.77
 -24 -10  13    6.78    2.48
  24  10 -13    2.46    1.92
 -22 -10  13    0.62    1.86
  22  10 -13   -2.65    1.40
 -20 -10  13   12.12    2.67
  20  10 -13   14.52    2.67
 -18 -10  13   -1.15    1.70
  18  10 -13    5.08    2.00
 -16 -10  13    9.08    2.27
  16  10 -13    9.65    2.26
 -14 -10  13    6.87    2.20
 -12 -10  13   -1.79    1.53
 -10 -10  13    0.83    1.82
  -8 -10  13   -0.02    1.64
  -6 -10  13    7.91    2.31
  -6  10  13    5.46    1.51
  -4 -10  13   -0.36    1.66
  -4  10  13    2.13    1.40
  -2 -10  13    4.33    2.10
  -2  10  13    1.94    1.54
   0 -10  13    2.71    2.02
   0  10  13    2.12    1.75
   2 -10  13   12.95    2.79
   2  10  13   13.76    2.54
   4 -10  13    4.94    2.35
   4  10  13    5.97    2.18
 -25 -11  13   11.11    2.79
  25  11 -13    3.15    2.22
 -23 -11  13   -1.69    1.87
  23  11 -13   -1.46    1.82
 -21 -11  13   37.92    4.09
  21  11 -13   33.01    3.93
 -19 -11  13    3.74    2.19
  19  11 -13    1.28    1.97
 -17 -11  13   11.16    2.61
  17  11 -13   20.19    3.04
 -15 -11  13   -1.51    1.68
 -13 -11  13   11.76    2.52
 -11 -11  13    1.44    2.03
  -9 -11  13   40.28    4.12
  -7 -11  13   22.58    3.19
  -5 -11  13   20.53    3.22
  -3 -11  13   34.45    3.92
  -1 -11  13    1.06    2.04
  -1  11  13    2.80    1.79
 -18 -12  13    0.00    1.97
  18  12 -13    1.61    2.03
 -16 -12  13    7.41    2.55
 -14 -12  13    1.50    2.07
 -12 -12  13    0.48    2.24
 -10 -12  13   13.81    2.93
  -8 -12  13    1.19    2.04
  44   0 -14    3.89    2.20
  42   0 -14   20.16    3.04
  40   0 -14    8.68    2.25
  38   0 -14   40.36    3.74
  36   0 -14   97.47    4.95
  34   0 -14   31.30    3.03
  32   0 -14    7.71    1.63
  30   0 -14   63.82    3.43
 -28   0  14   64.22    2.70
  28   0 -14   62.40    3.26
 -26   0  14   11.68    1.60
  26   0 -14   13.65    1.68
 -26   0  14   13.48    1.30
  24   0 -14  182.69    5.72
 -24   0  14  180.13    5.18
 -24   0  14  175.82    5.68
 -22   0  14    0.81    0.66
 -22   0  14   -0.39    0.86
  22   0 -14    1.12    0.78
 -20   0  14   59.86    2.63
 -20   0  14   69.10    2.95
  20   0 -14   65.73    2.70
  18   0 -14   26.29    1.61
 -18   0  14   26.88    1.62
 -18   0  14   25.86    1.89
 -16   0  14  118.11    4.04
  16   0 -14  112.58    3.59
  16   0 -14  115.94    3.90
 -16   0  14  111.15    3.57
 -14   0  14  105.27    3.32
 -14   0  14  101.47    3.83
  14   0 -14  110.56    3.36
  14   0 -14  107.69    3.75
  12   0 -14   84.34    2.83
  12   0 -14   92.08    3.42
 -12   0  14   84.96    3.49
 -12   0  14   89.02    2.86
 -10   0  14   92.59    3.72
 -10   0  14   99.18    3.05
  -8   0  14  155.63    5.28
  -8   0  14  154.31    4.40
  -6   0  14   72.93    3.35
  -6   0  14   68.11    3.32
  -6   0  14   70.52    2.57
  -4   0  14   93.77    3.18
  -4   0  14   88.35    4.03
  -4   0  14   92.03    4.00
  -2   0  14  125.28    4.91
  -2   0  14  124.89    5.02
   0   0  14   49.58    3.27
   0   0  14   51.24    3.27
   2   0  14   21.46    2.43
   2   0  14   28.16    2.82
   4   0  14    1.20    1.40
   6   0  14  159.76    6.53
   8   0  14   26.98    2.96
  10   0  14   23.89    3.11
  12   0  14   49.34    4.32
  14   0  14    4.18    2.00
  16   0  14   50.66    4.64
  43  -1 -14   -2.63    1.48
  43   1 -14   -1.45    1.54
  41  -1 -14    2.01    1.86
  41   1 -14    1.46    1.86
  39  -1 -14    1.42    1.55
  39   1 -14    3.22    1.83
  37  -1 -14    0.95    1.44
  37   1 -14    3.15    1.53
  35  -1 -14    8.02    1.83
  35   1 -14    8.31    1.82
  33  -1 -14    1.27    1.29
  33   1 -14    2.32    1.36
  31  -1 -14    2.28    1.21
 -31   1  14    2.05    0.82
  31   1 -14    2.71    1.27
  29  -1 -14    0.85    0.94
  29   1 -14    1.76    1.14
 -29   1  14    1.13    0.68
 -27  -1  14   14.56    1.92
  27  -1 -14   16.40    1.82
 -27   1  14   16.23    1.71
  27   1 -14   16.59    1.91
 -27   1  14   14.74    1.23
 -25  -1  14   11.62    1.68
  25  -1 -14    7.74    1.24
 -25   1  14    8.38    1.28
  25   1 -14    9.10    1.50
 -25   1  14    8.77    0.96
 -23  -1  14    0.43    0.98
  23  -1 -14    2.76    0.89
 -23  -1  14   -0.09    0.79
 -23   1  14    0.83    0.80
 -23   1  14    0.72    0.56
  23   1 -14    1.09    0.90
 -21  -1  14    5.72    1.25
  21  -1 -14    2.13    0.79
  21   1 -14    1.67    0.84
 -21   1  14    3.16    0.65
 -21   1  14    2.28    0.94
 -19  -1  14   13.25    1.66
  19  -1 -14   14.30    1.24
 -19   1  14   12.68    1.34
  19   1 -14   14.53    1.43
 -17  -1  14   27.92    2.12
  17  -1 -14   24.64    1.40
  17  -1 -14   25.51    1.56
 -17  -1  14   23.26    1.63
 -17   1  14   25.09    1.73
  17   1 -14   24.39    1.67
 -15  -1  14    0.61    0.94
 -15  -1  14   -0.08    0.58
  15  -1 -14    0.17    0.56
  15  -1 -14   -0.20    0.43
 -15   1  14   -0.18    0.70
 -15   1  14   -0.28    0.45
  15   1 -14   -0.17    0.60
 -13  -1  14    3.22    1.17
  13  -1 -14    2.22    0.77
 -13  -1  14    0.69    0.62
  13  -1 -14    2.37    0.53
 -13   1  14    1.69    0.52
 -13   1  14    2.02    0.90
  13   1 -14    1.73    0.75
  11  -1 -14    0.56    0.67
 -11  -1  14    0.82    0.92
 -11  -1  14   -0.40    0.51
 -11   1  14    0.52    0.41
 -11   1  14   -0.54    0.71
  -9  -1  14    3.18    1.20
  -9  -1  14    4.70    0.86
  -9   1  14    4.12    0.59
  -9   1  14    4.93    1.13
  -9   1  14    4.88    1.10
  -7  -1  14    3.87    1.21
  -7  -1  14    7.39    1.02
  -7   1  14    4.64    1.26
  -7   1  14    4.28    1.12
  -7   1  14    4.89    0.67
  -5  -1  14    6.40    1.01
  -5  -1  14    6.81    1.60
  -5   1  14    4.78    0.74
  -5   1  14    6.74    1.32
  -5   1  14    4.76    1.26
  -3  -1  14    0.23    0.95
  -3  -1  14   -0.80    0.99
  -3   1  14    0.12    1.02
  -3   1  14   -0.25    1.04
  -1  -1  14    0.80    1.26
  -1  -1  14   -0.59    1.14
  -1   1  14   -0.02    1.07
  -1   1  14   -0.33    1.00
   1  -1  14    8.45    1.89
   1  -1  14   11.41    1.87
   1   1  14   13.55    1.97
   3  -1  14   13.19    2.30
   3  -1  14   14.41    2.30
   3   1  14   13.96    2.06
   5  -1  14    0.09    1.46
   5  -1  14   -0.92    1.26
   5   1  14    1.04    1.47
   7  -1  14   36.99    3.57
   7   1  14   35.56    3.47
   9  -1  14    2.74    1.76
   9   1  14   -1.39    1.40
  11  -1  14    5.21    2.10
  11   1  14    4.99    1.94
  13  -1  14    0.85    1.60
  13   1  14   -1.18    1.42
  15  -1  14   -0.67    1.60
  15   1  14    0.54    1.98
  44   2 -14   -2.38    1.79
  42  -2 -14   22.49    3.18
  42   2 -14   20.56    3.22
  40  -2 -14    1.22    1.50
  40   2 -14    3.20    1.89
  38  -2 -14   77.64    4.53
  38   2 -14   71.66    4.57
  36  -2 -14   16.16    2.26
  36   2 -14   15.98    2.47
  34  -2 -14   42.42    3.18
  34   2 -14   47.59    3.33
  32  -2 -14    5.47    1.45
  32   2 -14    9.28    1.82
  30  -2 -14   28.75    2.53
  30   2 -14   18.28    2.17
 -30   2  14   22.15    1.42
  28  -2 -14  108.75    4.27
 -28  -2  14  105.27    4.65
  28   2 -14  102.32    4.51
 -28   2  14  109.70    3.92
 -28   2  14  109.86    3.20
 -26  -2  14    1.59    1.27
  26  -2 -14    2.55    1.02
  26   2 -14    2.10    1.09
 -26   2  14    2.43    0.55
 -26   2  14    2.92    0.95
  24  -2 -14  241.97    6.81
 -24  -2  14  242.88    7.43
 -24   2  14  224.48    5.77
  24   2 -14  230.18    7.16
 -24   2  14  228.38    6.41
 -22  -2  14    0.02    1.05
  22  -2 -14    0.36    0.64
 -22   2  14    0.86    0.67
  22   2 -14    0.78    0.91
 -22   2  14   -0.46    0.38
  20  -2 -14   88.17    3.03
 -20  -2  14   91.15    3.92
  20   2 -14   82.27    3.48
 -20   2  14   90.53    3.03
  18  -2 -14   13.05    1.08
 -18  -2  14   12.31    1.70
  18   2 -14   11.98    1.39
 -18   2  14   12.51    1.20
  16  -2 -14  147.64    4.33
  16  -2 -14  149.47    4.03
 -16  -2  14  148.36    5.21
  16   2 -14  152.80    4.84
 -16   2  14  150.11    4.46
  14  -2 -14  145.57    4.40
 -14  -2  14  144.91    5.19
 -14  -2  14  163.40    6.26
  14  -2 -14  148.63    3.81
 -14   2  14  146.18    4.40
  14   2 -14  146.34    4.72
 -14   2  14  152.10    4.51
 -12  -2  14   31.62    1.89
 -12  -2  14   35.10    2.72
  12  -2 -14   32.58    1.75
  12   2 -14   33.51    1.98
 -12   2  14   30.64    1.88
 -12   2  14   30.29    1.76
 -10  -2  14   66.16    2.99
 -10  -2  14   62.72    3.21
  10  -2 -14   62.83    2.64
 -10   2  14   58.10    2.70
 -10   2  14   59.25    2.63
   8  -2 -14   27.62    2.24
  -8  -2  14   25.63    2.37
  -8   2  14   22.06    0.85
  -8   2  14   27.41    2.14
  -8   2  14   23.05    1.98
  -6  -2  14   72.34    3.64
  -6   2  14   74.42    3.19
  -6   2  14   69.85    2.07
  -6   2  14   65.65    3.18
  -4  -2  14    2.91    1.30
  -4   2  14    3.01    1.14
  -4   2  14    2.73    1.10
  -4   2  14    3.86    0.60
  -2  -2  14   93.06    4.39
  -2   2  14   92.26    4.00
   0  -2  14   62.27    3.65
   0  -2  14   55.18    3.56
   0   2  14   56.01    3.20
   2  -2  14  121.63    5.50
   2  -2  14  119.35    5.33
   2   2  14  125.71    5.23
   4  -2  14   37.47    3.46
   4  -2  14   48.19    3.37
   4   2  14   48.73    3.23
   6  -2  14   77.04    4.61
   6  -2  14   82.08    4.51
   6   2  14   78.38    4.29
   8  -2  14    1.95    1.81
   8   2  14    4.78    1.88
  10  -2  14    4.85    1.92
  10   2  14   10.48    2.39
  12  -2  14   39.77    4.03
  12   2  14   41.24    3.98
  12   2  14   35.59    3.13
  14  -2  14    4.14    2.24
  14   2  14    3.84    1.96
  14   2  14    0.01    1.50
  16  -2  14   12.62    2.89
  16   2  14    7.08    2.42
  16   2  14   10.84    2.35
  43  -3 -14   -1.24    1.62
  43   3 -14   -1.81    1.68
  41  -3 -14    5.23    1.90
  41   3 -14    3.57    2.15
  39  -3 -14   -0.86    1.44
  39   3 -14    1.40    1.62
  37  -3 -14    0.14    1.31
  37   3 -14    1.77    1.75
  35  -3 -14   10.65    2.05
  35   3 -14   14.65    2.29
  33  -3 -14   -0.08    1.13
  33   3 -14   -1.06    1.23
  31  -3 -14    3.56    1.29
  31   3 -14    1.99    1.22
  29  -3 -14    0.86    1.01
 -29  -3  14   -0.54    1.28
  29   3 -14    1.55    1.24
 -29   3  14    0.75    0.80
 -27  -3  14    6.70    1.68
  27  -3 -14    5.90    1.24
 -27   3  14    6.43    1.03
  27   3 -14    5.52    1.52
 -25  -3  14    6.24    1.63
  25  -3 -14    3.27    1.03
  25   3 -14    4.65    1.28
 -25   3  14    5.31    0.86
 -23  -3  14   15.14    1.97
  23  -3 -14   16.31    1.46
  23   3 -14   17.45    1.84
 -23   3  14   18.00    1.23
  21  -3 -14   25.77    1.57
 -21  -3  14   24.67    2.24
  21   3 -14   26.89    2.27
 -21   3  14   26.08    1.38
 -19  -3  14    1.99    1.30
  19  -3 -14    1.64    0.58
  19   3 -14    1.62    0.95
 -19   3  14    1.39    0.40
 -19   3  14    1.09    0.57
  17  -3 -14    5.20    0.66
 -17  -3  14    4.49    1.35
 -17   3  14    5.60    0.77
 -17   3  14    4.77    0.65
  17   3 -14    5.75    1.22
 -15  -3  14   22.67    2.26
  15  -3 -14   20.22    1.21
  15  -3 -14   22.38    0.90
 -15   3  14   20.45    1.33
  15   3 -14   17.59    1.71
 -15   3  14   18.79    1.25
  13  -3 -14    1.93    0.60
 -13  -3  14    1.22    1.13
  13   3 -14   -0.20    0.80
 -13   3  14    1.50    0.68
 -13   3  14    1.23    0.69
  11  -3 -14    0.15    0.56
 -11  -3  14    0.48    1.12
 -11   3  14    0.08    0.65
  11   3 -14   -0.05    0.74
 -11   3  14    0.26    0.67
  -9  -3  14   41.37    2.88
   9  -3 -14   40.95    2.13
  -9   3  14   41.93    2.26
  -9   3  14   48.48    2.31
  -7  -3  14    2.09    1.20
  -7   3  14   -0.54    0.74
  -5  -3  14    1.42    1.11
  -5   3  14   -0.37    0.81
  -3  -3  14    8.34    1.66
  -3   3  14    6.97    0.69
  -3   3  14    7.31    1.48
  -1  -3  14   11.92    2.01
  -1   3  14   16.34    1.18
  -1   3  14   16.85    2.04
   1  -3  14    7.53    1.90
   1   3  14    9.81    1.15
   1   3  14   10.68    1.78
   3  -3  14    5.30    1.84
   3  -3  14    3.96    1.60
   3   3  14    5.62    1.63
   3   3  14    5.99    1.06
   5  -3  14   18.58    2.70
   5  -3  14   21.95    2.85
   5   3  14   15.93    2.32
   5   3  14   20.91    1.88
   7  -3  14    7.92    2.25
   7  -3  14    5.52    1.90
   7   3  14    8.33    1.47
   7   3  14    9.04    2.11
   9  -3  14    2.05    1.80
   9   3  14    1.71    1.56
   9   3  14    2.69    1.24
  11  -3  14    0.94    1.75
  11   3  14    0.03    1.17
  11   3  14    0.05    1.72
  13  -3  14   -2.68    1.70
  13   3  14   -0.20    1.32
  13   3  14   -0.12    1.61
  15  -3  14   16.67    3.09
  15   3  14   12.73    2.67
  42  -4 -14   59.82    4.85
  42   4 -14   69.87    5.11
  40  -4 -14    0.87    1.65
  40   4 -14    1.20    1.72
  38  -4 -14    8.43    2.06
  38   4 -14   11.82    2.36
  36  -4 -14    1.30    1.39
  36   4 -14    1.94    1.57
  34  -4 -14   -0.92    1.17
  34   4 -14   -0.80    1.37
  32  -4 -14   52.55    3.28
  32   4 -14   56.96    3.82
  30  -4 -14   35.65    2.60
 -30  -4  14   43.49    3.70
  30   4 -14   39.23    3.37
 -30   4  14   33.59    1.92
 -28  -4  14   77.10    4.45
  28  -4 -14   85.71    3.72
  28   4 -14   89.15    4.30
 -28   4  14   77.85    2.76
  26  -4 -14   30.49    2.15
 -26  -4  14   28.62    2.87
 -26   4  14   30.03    1.44
  26   4 -14   34.01    2.96
 -24  -4  14   42.27    3.18
  24  -4 -14   42.66    2.28
 -24   4  14   42.53    1.52
  24   4 -14   43.85    2.94
  22  -4 -14   10.25    1.16
 -22  -4  14   10.77    1.80
  22   4 -14   11.03    1.61
 -20  -4  14   91.28    4.33
  20  -4 -14   94.52    3.12
  20   4 -14   95.98    4.05
 -18  -4  14    0.36    1.17
  18  -4 -14   -0.06    0.42
 -18   4  14    0.15    0.31
 -18   4  14   -0.33    0.29
  18   4 -14    1.92    1.05
  16  -4 -14  178.89    4.50
 -16  -4  14  171.67    6.24
  16  -4 -14  173.01    4.42
 -16   4  14  179.71    4.65
  16   4 -14  177.94    5.92
 -14  -4  14   18.49    2.13
  14  -4 -14   17.93    1.09
 -14   4  14   18.74    1.24
  14   4 -14   16.21    1.78
  12  -4 -14  140.45    4.10
 -12  -4  14  140.74    5.40
 -12   4  14  140.74    4.31
  12   4 -14  141.59    5.04
 -10  -4  14   36.87    2.82
  10  -4 -14   40.14    1.99
 -10   4  14   40.20    2.11
   8  -4 -14    9.20    1.19
  -8  -4  14    7.03    1.70
  -8   4  14    5.70    1.11
  -6  -4  14  157.60    6.06
  -6   4  14  164.83    5.41
  -4  -4  14    3.63    1.42
  -4   4  14    4.02    1.22
  -2  -4  14  217.38    7.62
  -2   4  14  203.45    6.87
  -2   4  14  210.28    5.23
   0  -4  14   -0.50    1.44
   0   4  14    0.21    1.00
   0   4  14    1.65    0.58
   2  -4  14    6.21    1.96
   2   4  14    4.46    1.49
   2   4  14    4.31    0.88
   4  -4  14    4.68    1.90
   4  -4  14    5.22    1.90
   4   4  14    4.38    1.00
   4   4  14    2.54    1.52
   6  -4  14   10.62    2.55
   6  -4  14   10.85    2.57
   6   4  14   12.11    2.30
   6   4  14   15.66    1.64
   8  -4  14   88.43    5.28
   8  -4  14   86.45    4.96
   8   4  14   86.90    3.78
   8   4  14   93.82    4.99
  10  -4  14   32.39    3.76
  10  -4  14   31.93    3.59
  10   4  14   28.75    3.39
  10   4  14   33.58    2.71
  12  -4  14   18.60    3.10
  12   4  14   18.54    2.95
  14  -4  14   24.65    3.53
  14   4  14   32.74    3.77
  41  -5 -14    5.28    2.10
  41   5 -14   -0.96    1.80
  39  -5 -14   -0.95    1.44
  39   5 -14    1.80    1.93
  37   5 -14    5.12    2.11
  35   5 -14    2.96    1.73
  33   5 -14   -0.21    1.31
 -31  -5  14    1.85    1.71
  31   5 -14    3.00    1.54
 -29  -5  14    7.48    2.04
  29   5 -14    4.01    1.62
 -29   5  14    6.32    0.78
 -27  -5  14    2.60    1.67
  27   5 -14    1.82    1.36
 -25  -5  14    6.16    1.86
  25   5 -14    3.06    1.32
 -23  -5  14   31.84    2.93
  23   5 -14   42.34    3.25
 -21  -5  14    4.94    1.61
  21   5 -14    7.23    1.48
 -19  -5  14    0.63    1.30
  19   5 -14   -0.73    1.00
 -17  -5  14    3.01    1.37
  17  -5 -14    4.13    0.62
  17   5 -14    4.58    1.25
 -17   5  14    3.76    0.50
  15  -5 -14    6.16    0.46
 -15  -5  14    7.24    1.76
  15  -5 -14    5.20    0.44
 -15   5  14    6.14    0.75
  15   5 -14    5.07    1.36
  13  -5 -14    0.65    0.45
 -13  -5  14   -0.19    1.28
 -13   5  14    0.55    0.61
  13   5 -14    2.37    1.12
  11  -5 -14    7.50    0.94
 -11  -5  14    7.85    1.76
 -11   5  14    6.60    1.04
   9  -5 -14   45.15    2.14
  -9  -5  14   43.36    3.20
  -9   5  14   50.45    2.44
   7  -5 -14    1.64    0.80
  -7  -5  14    1.85    1.42
  -7   5  14    2.16    0.98
  -5  -5  14    1.16    1.46
  -5   5  14    2.14    1.11
  -3  -5  14    1.95    1.45
  -3   5  14    0.51    1.00
  -1  -5  14    1.91    1.43
  -1   5  14    4.04    0.58
  -1   5  14    4.29    1.42
   1  -5  14   21.14    2.91
   1   5  14   15.96    2.26
   1   5  14   17.35    1.25
   3  -5  14    2.95    1.88
   3   5  14    3.40    0.86
   3   5  14    3.33    1.55
   5  -5  14    0.96    1.56
   5  -5  14   -1.02    1.56
   5   5  14   -1.32    1.21
   5   5  14    0.49    0.83
   7  -5  14    1.58    1.97
   7  -5  14    2.59    2.02
   7   5  14    2.59    1.55
   9  -5  14    3.52    2.02
   9  -5  14    6.34    2.31
   9   5  14    7.41    2.11
  11  -5  14    1.78    2.03
  11  -5  14    0.32    1.79
  11   5  14   -1.07    1.68
  13  -5  14   -0.37    1.86
  13   5  14    1.01    1.69
  40   6 -14    6.50    2.43
  38   6 -14   19.67    3.04
  36   6 -14    9.33    2.36
 -34  -6  14   22.19    3.37
  34   6 -14   12.92    2.48
 -32  -6  14   77.44    5.13
  32   6 -14   76.04    4.65
 -30  -6  14    3.11    2.02
  30   6 -14    3.09    1.55
 -28  -6  14   75.51    4.65
  28   6 -14   76.52    4.26
 -26  -6  14    8.01    2.07
  26   6 -14    9.49    2.00
 -24  -6  14   69.78    4.25
  24   6 -14   65.47    3.82
 -22  -6  14    0.66    1.55
  22   6 -14   -1.13    1.09
 -20  -6  14  141.86    6.03
  20   6 -14  149.69    5.77
 -18  -6  14   52.42    3.57
  18   6 -14   46.49    3.20
 -16  -6  14  135.34    5.61
  16  -6 -14  125.71    3.44
  16   6 -14  127.33    5.16
 -16   6  14  120.91    3.48
 -14  -6  14   18.94    2.52
  14   6 -14   23.51    2.45
 -14   6  14   23.41    1.41
  12  -6 -14   48.88    1.84
 -12  -6  14   51.21    3.50
  12   6 -14   55.81    3.29
 -12   6  14   47.89    2.22
  10  -6 -14   25.43    1.52
 -10  -6  14   27.70    2.93
 -10   6  14   25.81    1.82
  -8  -6  14    1.33    1.33
   8  -6 -14    4.55    0.98
  -8   6  14    5.50    1.20
  -6  -6  14   45.74    3.84
  -6   6  14   45.92    2.68
  -4  -6  14    1.46    1.54
  -4   6  14    1.66    1.16
  -2  -6  14   23.08    2.90
  -2   6  14   19.36    2.14
   0  -6  14    9.43    2.16
   0   6  14   11.75    1.98
   2  -6  14   62.94    4.36
   2   6  14   69.29    3.96
   4  -6  14   11.07    2.37
   4   6  14    4.70    1.69
   6  -6  14   15.52    2.73
   6  -6  14   10.75    2.40
   6   6  14   12.87    2.33
   8  -6  14   20.46    3.15
   8  -6  14   20.77    3.16
   8   6  14   25.11    3.24
  10  -6  14   32.61    3.93
  10  -6  14   32.85    3.89
  10   6  14   29.34    3.53
  12  -6  14   27.07    3.62
  12  -6  14   21.03    3.28
  12   6  14   24.73    3.46
 -37  -7  14    4.83    2.48
  37   7 -14   14.63    2.93
 -35  -7  14   -1.00    2.03
  35   7 -14   -0.47    1.71
 -33  -7  14    6.85    2.45
  33   7 -14    6.27    2.11
 -31  -7  14    7.07    2.38
  31   7 -14    9.17    2.20
 -29  -7  14    7.91    2.34
  29   7 -14    8.39    1.93
 -27  -7  14   -0.17    1.83
  27   7 -14    5.62    1.74
 -25  -7  14   15.34    2.69
  25   7 -14   15.93    2.31
 -23  -7  14    0.23    1.43
  23   7 -14    2.57    1.47
 -21  -7  14    2.45    1.67
  21   7 -14    0.58    1.37
 -19  -7  14    4.34    1.68
  19   7 -14    5.71    1.68
 -17  -7  14    6.08    1.93
  17   7 -14    5.15    1.51
 -15  -7  14    0.84    1.54
  15   7 -14    1.23    1.35
 -13  -7  14    0.29    1.48
  13   7 -14   -0.47    1.12
 -13   7  14    0.19    0.70
 -11  -7  14    0.52    1.53
 -11   7  14    0.83    0.79
  -9  -7  14    6.10    1.79
  -9   7  14    1.92    0.93
  -7  -7  14    8.94    2.00
  -7   7  14   11.46    1.63
  -5  -7  14    2.86    1.75
  -5   7  14    2.75    1.20
  -3  -7  14    0.56    1.57
  -3   7  14   -1.50    1.02
  -1  -7  14   13.50    2.46
  -1   7  14   11.69    1.96
   1  -7  14   -0.35    1.56
   1   7  14    0.37    1.26
   3  -7  14   10.90    2.48
   3   7  14   12.22    2.31
   5  -7  14    1.76    1.89
   5   7  14    1.14    1.60
   7  -7  14    5.20    2.16
   7  -7  14    2.37    2.03
   7   7  14    6.46    2.03
   9  -7  14   -0.54    2.08
   9  -7  14    3.78    2.20
   9   7  14    1.90    1.73
  11  -7  14    1.40    2.28
  11  -7  14    8.02    2.49
  11   7  14    4.86    2.10
 -36  -8  14   -0.01    2.26
  36   8 -14    2.50    2.18
 -34  -8  14   32.08    4.12
  34   8 -14   29.53    3.62
 -32  -8  14   10.98    2.66
  32   8 -14   15.72    2.74
 -30  -8  14    2.97    2.08
  30   8 -14   -0.61    1.41
 -28  -8  14   22.13    3.29
  28   8 -14   24.55    3.15
 -26  -8  14    3.13    2.23
  26   8 -14    4.16    1.78
 -24  -8  14   56.68    4.27
  24   8 -14   53.04    3.77
 -22  -8  14    1.19    1.63
  22   8 -14   -0.21    1.42
 -20  -8  14  116.57    5.90
  20   8 -14  125.01    5.60
 -18  -8  14   16.44    2.60
  18   8 -14   17.71    2.49
 -16  -8  14   33.68    3.31
  16   8 -14   30.38    2.94
 -14  -8  14    2.43    1.70
  14   8 -14    1.21    1.42
 -12  -8  14   58.56    4.08
 -12   8  14   54.24    2.60
 -10  -8  14   90.49    4.95
 -10   8  14   86.73    3.59
  -8  -8  14   17.98    2.77
  -8   8  14   19.55    2.06
  -6  -8  14   80.95    4.86
  -6   8  14   85.74    3.96
  -4  -8  14    1.39    1.66
  -4   8  14    0.11    1.15
  -2  -8  14   41.92    3.84
  -2   8  14   43.78    3.21
   0  -8  14    3.86    1.93
   0   8  14    2.35    1.54
   2  -8  14   94.21    5.44
   2   8  14   84.19    4.73
   4  -8  14    9.66    2.43
   4   8  14   13.24    2.56
   6  -8  14   23.29    3.44
   6   8  14   25.01    3.33
   8  -8  14    8.24    2.60
   8  -8  14    4.61    2.42
   8   8  14    5.25    2.29
 -33  -9  14    1.53    2.26
  33   9 -14    0.09    1.88
 -31  -9  14    7.46    2.70
  31   9 -14    4.79    2.14
 -29  -9  14    0.02    2.01
  29   9 -14    2.11    2.02
 -27  -9  14    0.93    1.97
  27   9 -14   -0.50    1.57
 -25  -9  14   -0.92    1.81
  25   9 -14   -0.27    1.77
 -23  -9  14   -0.75    1.77
  23   9 -14   -0.72    1.61
 -21  -9  14    7.22    2.20
  21   9 -14    4.35    1.88
 -19  -9  14    3.32    1.91
  19   9 -14    2.16    1.59
 -17  -9  14   26.92    3.46
  17   9 -14   27.01    3.22
 -15  -9  14   -1.19    1.57
  15   9 -14   -0.93    1.57
 -13  -9  14   10.37    2.33
 -11  -9  14    1.64    1.77
  -9  -9  14    6.50    2.07
  -9   9  14    5.96    1.45
  -7  -9  14    5.80    2.06
  -7   9  14    5.74    1.49
  -5  -9  14   12.13    2.54
  -5   9  14   10.88    1.89
  -3  -9  14    4.05    2.05
  -3   9  14    2.00    1.47
  -1  -9  14    7.69    2.28
  -1   9  14    6.13    1.74
   1  -9  14    2.16    1.90
   1   9  14    2.99    1.70
   3  -9  14   -2.01    1.71
   3   9  14    0.92    1.84
   5  -9  14    3.70    2.26
   5   9  14    2.57    1.92
 -30 -10  14   16.91    3.33
  30  10 -14   10.12    2.64
 -28 -10  14    4.81    2.35
  28  10 -14    0.92    1.94
 -26 -10  14    3.18    2.32
  26  10 -14    1.21    1.95
 -24 -10  14   43.14    4.29
  24  10 -14   58.35    4.77
 -22 -10  14   -0.45    1.82
  22  10 -14    1.27    2.01
 -20 -10  14   81.92    5.23
  20  10 -14   78.12    4.90
 -18 -10  14    1.11    1.85
  18  10 -14    2.80    2.01
 -16 -10  14    5.62    2.27
  16  10 -14   11.91    2.54
 -14 -10  14   12.51    2.60
 -12 -10  14   11.69    2.64
 -10 -10  14   75.21    5.06
  -8 -10  14   14.59    2.77
  -6 -10  14   31.03    3.61
  -6  10  14   28.54    2.70
  -4 -10  14   -1.60    1.65
  -4  10  14   -0.32    1.45
  -2 -10  14    6.36    2.27
  -2  10  14    2.76    1.68
   0 -10  14    1.76    1.97
   0  10  14    1.08    1.72
   2 -10  14   42.92    4.39
   2  10  14   47.91    4.24
 -25 -11  14    5.12    2.32
  25  11 -14    6.11    2.34
 -23 -11  14   12.29    2.88
  23  11 -14   10.01    2.76
 -21 -11  14    2.76    2.15
  21  11 -14    4.46    2.26
 -19 -11  14   12.30    2.86
  19  11 -14   14.83    2.85
 -17 -11  14    7.22    2.43
  17  11 -14    7.34    2.43
 -15 -11  14   -1.29    1.78
 -13 -11  14   15.35    3.06
 -11 -11  14    0.68    1.97
  -9 -11  14    2.99    2.18
  -7 -11  14    2.88    1.96
  -5 -11  14    7.69    2.53
  -3 -11  14    0.63    2.02
  -3  11  14    5.47    1.94
 -16 -12  14   15.25    3.06
 -14 -12  14    0.71    2.16
 -12 -12  14   18.34    3.21
  44   0 -15    0.21    1.67
  42   0 -15    1.01    1.63
  40   0 -15    1.95    1.61
  38   0 -15    0.29    1.31
  36   0 -15   -1.12    1.19
  34   0 -15    0.13    1.11
  32   0 -15   -0.14    1.04
 -30   0  15    0.63    1.10
  30   0 -15   -0.15    0.97
 -28   0  15   -0.20    0.67
  28   0 -15    0.12    0.88
 -28   0  15    0.66    1.04
 -26   0  15    0.45    0.66
  26   0 -15    0.27    0.77
 -26   0  15    0.27    0.92
 -24   0  15   -1.15    0.80
 -24   0  15   -0.09    0.62
  24   0 -15   -0.15    0.74
 -22   0  15    2.03    0.96
  22   0 -15   -0.13    0.67
 -20   0  15   -1.16    0.52
 -20   0  15    0.26    0.89
  20   0 -15    0.30    0.63
  18   0 -15    0.26    0.67
 -18   0  15   -0.87    0.83
  18   0 -15   -0.35    0.54
 -18   0  15   -0.11    0.58
  16   0 -15    1.23    0.58
 -16   0  15    0.51    0.57
 -16   0  15   -0.10    0.84
  16   0 -15    0.60    0.67
 -14   0  15    1.10    0.89
  14   0 -15    0.07    0.52
 -14   0  15    0.08    0.49
 -12   0  15    0.51    0.53
 -12   0  15   -0.77    0.86
 -10   0  15    0.51    0.94
 -10   0  15    0.38    0.52
  -8   0  15   -0.32    0.98
  -8   0  15    0.02    0.53
  -6   0  15   -0.53    0.96
  -6   0  15   -0.06    0.57
  -6   0  15    1.14    1.22
  -4   0  15    0.82    1.07
  -4   0  15    0.09    0.63
  -4   0  15   -0.78    1.02
  -2   0  15    0.16    1.23
  -2   0  15    0.63    1.22
   0   0  15    0.51    1.26
   0   0  15   -0.89    1.07
   2   0  15   -0.05    1.20
   2   0  15   -0.45    1.27
   4   0  15   -1.06    1.31
   6   0  15   -0.47    1.38
   8   0  15   -0.44    1.59
  10   0  15    0.34    1.58
  12   0  15   -0.65    1.44
  14   0  15    2.37    1.97
  43  -1 -15    2.82    2.05
  43   1 -15    0.72    1.77
  41  -1 -15   22.59    3.03
  41   1 -15   16.44    2.81
  39  -1 -15   60.27    4.14
  39   1 -15   60.51    4.06
  37  -1 -15    4.98    1.60
  37   1 -15    6.53    1.76
  35  -1 -15   66.83    3.91
  35   1 -15   69.46    4.05
  33  -1 -15   13.52    1.95
  33   1 -15   16.55    2.28
  31  -1 -15   64.68    3.46
 -31  -1  15   64.92    3.62
 -31   1  15   64.32    2.59
  31   1 -15   59.83    3.48
  29  -1 -15    1.92    1.00
 -29  -1  15    2.97    1.35
  29   1 -15    1.59    1.04
 -29   1  15    2.17    1.09
 -29   1  15    1.32    0.66
  27  -1 -15  115.80    4.34
 -27  -1  15  112.28    4.61
 -27   1  15  118.67    4.21
  27   1 -15  115.82    4.55
 -27   1  15  111.26    3.55
 -25  -1  15   79.30    3.60
  25  -1 -15   73.60    3.15
  25   1 -15   73.94    3.36
 -25   1  15   71.72    2.58
 -25   1  15   74.95    3.14
 -23  -1  15  143.12    5.03
  23  -1 -15  142.05    4.55
 -23   1  15  137.17    4.57
 -23   1  15  142.71    4.11
  23   1 -15  134.79    4.76
 -21  -1  15    3.46    1.19
  21  -1 -15    4.91    0.90
 -21   1  15    6.41    1.11
  21   1 -15    7.00    1.13
 -19  -1  15  197.61    6.35
  19  -1 -15  205.14    5.62
 -19   1  15  205.76    5.96
  19   1 -15  202.43    5.96
  17  -1 -15   17.81    1.21
 -17  -1  15   18.16    1.84
  17  -1 -15   20.43    1.66
 -17  -1  15   20.06    1.59
 -17   1  15   18.28    1.23
  17   1 -15   20.07    1.63
 -17   1  15   19.66    1.66
  15  -1 -15   65.07    2.25
 -15  -1  15   64.83    2.62
  15  -1 -15   65.00    2.69
 -15  -1  15   66.06    3.15
  15   1 -15   68.44    2.69
 -15   1  15   64.24    2.25
 -15   1  15   67.58    2.90
 -13  -1  15  112.09    3.61
  13  -1 -15  112.41    3.86
 -13  -1  15  103.59    4.22
 -13   1  15  108.47    3.92
 -13   1  15  108.46    3.14
  13   1 -15  107.50    3.62
 -11  -1  15   23.51    1.54
 -11  -1  15   28.74    2.44
 -11   1  15   23.93    1.17
 -11   1  15   21.13    1.93
 -11   1  15   20.56    1.80
  -9  -1  15   72.54    3.60
  -9  -1  15   75.91    2.85
  -9   1  15   76.07    2.40
  -9   1  15   79.44    3.40
  -9   1  15   77.43    3.44
  -7  -1  15   20.72    1.56
  -7  -1  15   27.28    2.58
  -7   1  15   21.56    1.23
  -7   1  15   22.54    2.17
  -7   1  15   23.10    2.23
  -5  -1  15  147.13    5.56
  -5   1  15  145.94    4.20
  -5   1  15  150.09    5.40
  -5   1  15  140.98    5.24
  -3  -1  15   31.09    2.82
  -3  -1  15   31.27    2.73
  -3   1  15   39.11    1.84
  -3   1  15   35.96    2.70
  -3   1  15   36.84    2.71
  -1  -1  15   55.78    3.64
  -1  -1  15   58.93    3.51
  -1   1  15   58.73    3.51
  -1   1  15   65.85    3.60
   1  -1  15   53.13    3.67
   1  -1  15   48.64    3.49
   1   1  15   48.27    3.26
   3  -1  15   38.96    3.47
   3  -1  15   40.36    3.50
   3   1  15   47.79    3.46
   5  -1  15   37.05    3.54
   5   1  15   30.77    3.19
   7  -1  15   46.49    4.08
   7   1  15   35.32    3.53
   9  -1  15   42.71    4.07
   9   1  15   48.71    4.20
  11  -1  15    1.58    1.88
  11   1  15   -1.11    1.62
  13  -1  15   16.37    2.95
  13   1  15   12.89    2.64
  15  -1  15   -0.13    2.02
  15   1  15    1.83    2.03
  44  -2 -15    0.86    1.88
  44   2 -15    2.56    1.96
  42  -2 -15    2.56    1.86
  42   2 -15    3.03    1.93
  40  -2 -15    0.12    1.55
  40   2 -15    2.39    1.78
  38  -2 -15    4.11    1.74
  38   2 -15    7.23    2.03
  36  -2 -15    1.23    1.34
  36   2 -15    0.67    1.41
  34  -2 -15   15.12    2.10
  34   2 -15   13.42    2.25
  32  -2 -15   -0.03    1.05
  32   2 -15    1.89    1.29
 -30  -2  15   11.15    2.00
  30  -2 -15   12.47    1.72
  30   2 -15    9.82    1.83
 -30   2  15   11.56    1.52
 -30   2  15   12.44    1.06
  28  -2 -15   -1.06    0.81
 -28  -2  15   -0.53    1.14
 -28   2  15    0.72    0.51
 -28   2  15    0.85    0.84
  28   2 -15   -0.48    0.92
  26  -2 -15    0.08    0.75
 -26  -2  15    0.66    1.15
  26   2 -15    0.47    1.01
 -26   2  15   -0.05    0.73
 -26   2  15    0.17    0.44
  24  -2 -15   29.05    1.86
 -24  -2  15   25.39    2.32
  24   2 -15   27.57    2.31
 -24   2  15   30.38    1.81
 -24   2  15   26.05    1.25
  22  -2 -15   25.89    1.65
 -22  -2  15   26.22    2.42
 -22   2  15   28.07    1.70
  22   2 -15   25.76    2.14
 -22   2  15   30.06    1.35
  20  -2 -15    1.59    0.65
 -20  -2  15    0.03    0.97
 -20   2  15    0.66    0.72
  20   2 -15    0.32    0.80
 -18  -2  15    1.11    1.09
  18  -2 -15    1.60    0.54
  18  -2 -15    0.15    0.49
  18   2 -15    0.51    0.78
 -18   2  15    0.88    0.72
  16  -2 -15   32.91    1.73
  16  -2 -15   33.57    1.38
 -16  -2  15   35.88    2.51
 -16   2  15   33.27    1.77
  16   2 -15   32.83    2.09
 -16   2  15   34.73    1.90
  14  -2 -15    2.62    0.77
 -14  -2  15    2.49    1.15
  14  -2 -15    3.53    0.46
 -14   2  15    1.62    0.83
 -14   2  15    1.79    0.81
  14   2 -15    2.48    0.84
  12  -2 -15   21.97    1.53
 -12  -2  15   15.82    1.94
 -12   2  15   19.76    1.72
  12   2 -15   17.23    1.55
 -12   2  15   20.39    1.67
 -10  -2  15   19.52    2.19
 -10   2  15   20.41    1.88
 -10   2  15   14.59    1.55
  -8  -2  15    6.07    1.48
  -8   2  15    2.96    1.10
  -8   2  15    3.82    1.13
  -8   2  15    4.54    0.47
  -6  -2  15    0.79    1.15
  -6   2  15    2.33    1.05
  -6   2  15    1.58    1.00
  -6   2  15    1.00    0.41
  -4  -2  15   -1.02    1.13
  -4   2  15   -1.11    0.93
  -4   2  15    0.19    1.02
  -4   2  15   -0.60    0.44
  -2  -2  15    2.54    1.42
  -2  -2  15    2.11    1.38
  -2   2  15   -0.52    0.95
   0  -2  15    2.10    1.63
   0  -2  15    1.14    1.65
   0   2  15    0.86    1.25
   2  -2  15   31.94    3.16
   2  -2  15   28.33    3.07
   2   2  15   36.31    3.12
   4  -2  15    3.01    1.74
   4  -2  15    1.80    1.55
   4   2  15    0.52    1.44
   6  -2  15    1.99    1.79
   6  -2  15    0.27    1.50
   6   2  15    1.13    1.43
   8  -2  15    4.68    1.97
   8   2  15    1.85    1.67
  10  -2  15    1.72    1.89
  10   2  15    1.76    1.83
  12  -2  15    2.92    2.18
  12   2  15    4.68    1.68
  12   2  15    0.18    1.76
  14  -2  15    4.88    2.38
  14   2  15    4.93    3.00
  14   2  15    8.17    2.54
  43  -3 -15    5.29    2.15
  43   3 -15    4.57    2.29
  41  -3 -15   56.70    4.23
  41   3 -15   59.11    4.89
  39  -3 -15   19.83    2.70
  39   3 -15   22.46    3.10
  37  -3 -15    9.50    2.01
  37   3 -15   11.05    2.22
  35  -3 -15   14.01    2.08
  35   3 -15   15.77    2.38
  33  -3 -15   -0.20    1.07
  33   3 -15    0.76    1.31
  31  -3 -15   89.03    3.99
 -31  -3  15   82.48    4.50
 -31   3  15   88.99    3.45
  31   3 -15   85.23    4.27
 -29  -3  15    3.69    1.62
  29  -3 -15    6.32    1.37
 -29   3  15    5.55    1.07
  29   3 -15    6.95    1.57
  27  -3 -15  133.83    4.57
 -27  -3  15  120.02    5.21
  27   3 -15  121.00    4.96
 -27   3  15  120.78    3.87
 -25  -3  15    1.21    1.25
  25  -3 -15    1.48    0.83
 -25   3  15    1.16    0.67
  25   3 -15    0.94    0.98
 -23  -3  15   21.57    2.30
  23  -3 -15   19.12    1.56
 -23   3  15   20.42    1.30
  23   3 -15   21.79    2.10
 -21  -3  15   10.62    1.86
  21  -3 -15   10.59    1.07
 -21   3  15    9.66    0.98
 -21   3  15    8.95    0.66
  21   3 -15    9.52    1.43
  19  -3 -15   69.72    2.35
 -19  -3  15   68.12    3.56
 -19   3  15   68.03    2.20
 -19   3  15   70.84    2.43
  19   3 -15   69.01    3.22
  17  -3 -15   78.56    2.36
  17  -3 -15   78.98    2.66
 -17  -3  15   81.74    3.90
  17   3 -15   84.91    3.52
 -17   3  15   79.02    2.76
 -17   3  15   81.41    2.68
  15  -3 -15    7.42    0.92
 -15  -3  15    6.76    1.59
  15   3 -15    5.15    1.21
 -15   3  15    8.61    1.04
 -15   3  15    6.66    1.01
  13  -3 -15  114.57    3.62
 -13  -3  15  109.58    4.62
 -13   3  15  111.92    3.74
 -13   3  15  107.01    3.71
  13   3 -15  113.39    4.17
  11  -3 -15    0.13    0.63
 -11  -3  15   -0.11    1.11
 -11   3  15    0.22    0.68
 -11   3  15    1.61    0.80
  -9  -3  15   80.23    4.14
  -9   3  15   95.62    3.62
  -9   3  15   92.56    3.54
  -7  -3  15    1.92    1.27
  -7   3  15    0.76    0.98
  -5  -3  15  134.68    5.62
  -5   3  15  146.11    5.15
  -5   3  15  136.25    3.40
  -3  -3  15   65.59    3.87
  -3   3  15   60.43    3.30
  -3   3  15   59.74    2.04
  -1  -3  15   87.62    4.72
  -1   3  15   91.57    2.99
  -1   3  15   89.71    4.23
   1  -3  15   30.56    3.13
   1  -3  15   32.26    3.25
   1   3  15   28.12    2.76
   1   3  15   35.91    1.91
   3  -3  15   67.26    4.42
   3  -3  15   73.55    4.54
   3   3  15   72.21    4.15
   3   3  15   76.83    3.07
   5  -3  15   36.60    3.81
   5  -3  15   31.37    3.29
   5   3  15   30.17    3.09
   5   3  15   34.93    2.29
   7  -3  15    7.43    2.19
   7  -3  15   11.95    2.44
   7   3  15    8.81    2.17
   7   3  15    8.10    1.48
   9  -3  15   88.04    5.36
   9   3  15   77.04    3.86
   9   3  15   81.46    4.96
  11  -3  15    2.64    2.00
  11   3  15   -1.14    1.49
  13  -3  15   29.98    3.92
  13   3  15   37.06    4.15
  42  -4 -15    2.75    1.88
  42   4 -15    1.54    1.88
  40  -4 -15    0.47    1.54
  40   4 -15   -0.63    1.56
  38  -4 -15    2.37    1.67
  38   4 -15    5.34    2.13
  36  -4 -15   -1.24    1.20
  36   4 -15    1.62    1.58
 -34  -4  15   29.23    3.18
  34  -4 -15   28.10    2.72
  34   4 -15   32.31    3.37
 -32  -4  15    4.43    1.86
  32  -4 -15    9.69    1.77
  32   4 -15    5.95    1.78
 -32   4  15    5.21    1.11
  30  -4 -15    2.42    1.19
 -30  -4  15    0.92    1.54
 -30   4  15    2.09    0.80
  30   4 -15    3.44    1.45
 -28  -4  15    0.11    1.39
  28  -4 -15    0.01    0.95
 -28   4  15    1.15    0.64
  28   4 -15    0.60    1.11
 -26  -4  15    4.13    1.69
  26  -4 -15    7.43    1.21
 -26   4  15    5.93    0.78
  26   4 -15    7.66    1.74
 -24  -4  15   11.40    2.02
  24  -4 -15   11.86    1.32
 -24   4  15   11.72    0.83
  24   4 -15   11.18    1.73
 -22  -4  15    1.52    1.35
  22  -4 -15   -0.72    0.54
 -22   4  15    0.20    0.39
  22   4 -15   -0.97    0.85
 -20  -4  15   15.06    2.14
  20  -4 -15   15.58    1.15
  20   4 -15   13.40    1.71
 -20   4  15   12.59    0.78
 -18  -4  15    2.21    1.45
  18  -4 -15    3.91    0.60
 -18   4  15    4.06    0.60
  18   4 -15    5.28    1.26
 -18   4  15    4.48    0.61
 -16  -4  15   -0.29    1.21
  16  -4 -15    0.93    0.47
 -16   4  15    0.90    0.56
  16   4 -15    1.62    1.04
 -14  -4  15    5.40    1.59
  14  -4 -15    5.16    0.77
  14   4 -15    3.86    1.23
 -14   4  15    5.17    0.89
 -12  -4  15   18.27    2.22
  12  -4 -15   17.72    1.34
  12   4 -15   13.67    1.65
 -12   4  15   18.03    1.54
  10  -4 -15   22.55    1.76
 -10  -4  15   17.26    2.17
 -10   4  15   20.19    1.75
  -8  -4  15    4.15    1.55
  -8   4  15    4.88    1.12
  -6  -4  15   -0.16    1.26
  -6   4  15    0.83    0.95
  -4  -4  15   -1.30    1.09
  -4   4  15    0.38    1.04
  -2  -4  15   12.07    2.16
  -2   4  15   11.92    1.85
  -2   4  15   12.37    0.88
   0  -4  15    1.08    1.50
   0   4  15   -0.65    0.51
   0   4  15    0.08    1.20
   2  -4  15   30.31    3.27
   2  -4  15   34.41    3.44
   2   4  15   35.72    3.15
   2   4  15   32.66    1.85
   4  -4  15   11.03    2.40
   4  -4  15    9.65    2.41
   4   4  15    7.04    1.94
   4   4  15    8.95    1.30
   6  -4  15    0.78    1.73
   6  -4  15    1.51    1.86
   6   4  15    0.70    1.48
   6   4  15    0.85    0.96
   8  -4  15    6.60    2.15
   8  -4  15    3.77    2.13
   8   4  15    5.96    1.93
  10  -4  15   -1.44    1.68
  10   4  15   -0.03    1.46
  12  -4  15    8.75    2.57
  12   4  15    8.05    2.37
  41  -5 -15   11.25    2.55
  41   5 -15   10.42    2.66
  39  -5 -15    9.38    2.25
  39   5 -15    7.95    2.22
  37  -5 -15    3.25    1.69
  37   5 -15    4.89    1.93
  35  -5 -15   33.00    3.09
 -35  -5  15   37.91    3.95
  35   5 -15   28.35    3.22
 -33  -5  15   -2.56    1.67
  33   5 -15    0.87    1.46
 -31  -5  15   85.86    4.98
  31   5 -15   84.97    4.62
 -29  -5  15    2.11    1.71
  29   5 -15    2.51    1.40
 -27  -5  15   65.75    4.18
  27   5 -15   63.70    3.67
 -25  -5  15    1.45    1.60
  25   5 -15    4.98    1.46
  23  -5 -15   24.98    1.65
 -23  -5  15   20.19    2.45
  23   5 -15   28.43    2.66
  21  -5 -15   25.51    1.53
 -21  -5  15   28.58    2.88
  21   5 -15   30.53    2.77
  19  -5 -15   12.35    1.00
 -19  -5  15   14.15    2.23
  19   5 -15   11.33    1.72
 -17  -5  15  104.52    4.86
  17  -5 -15  105.05    2.84
  17  -5 -15  107.72    2.85
 -17   5  15  110.32    3.10
  17   5 -15  109.54    4.59
  15  -5 -15   51.72    1.74
 -15  -5  15   45.87    3.34
 -15   5  15   48.51    2.03
  15   5 -15   47.02    2.97
  13  -5 -15   44.67    1.85
 -13  -5  15   42.59    3.26
 -13   5  15   44.46    2.11
  13   5 -15   46.18    2.89
  11  -5 -15   10.94    1.20
 -11  -5  15    9.53    2.06
 -11   5  15    8.31    1.23
  -9  -5  15   55.54    3.63
   9  -5 -15   53.17    2.43
  -9   5  15   47.83    2.60
  -7  -5  15    3.34    1.64
  -7   5  15    1.68    1.08
  -5  -5  15   90.33    4.78
  -5   5  15   95.36    4.08
  -3  -5  15    4.34    1.65
  -3   5  15    0.28    1.03
  -1  -5  15   69.01    4.40
  -1   5  15   69.20    2.24
  -1   5  15   61.82    3.64
   1  -5  15    8.17    2.24
   1   5  15   12.02    1.98
   3  -5  15   16.96    2.69
   3   5  15   24.91    2.85
   5  -5  15   55.60    4.59
   5  -5  15   39.65    4.02
   5   5  15   44.55    3.90
   7  -5  15    7.31    2.41
   7  -5  15    5.25    2.27
   7   5  15    8.75    2.25
   9  -5  15   53.99    4.75
   9  -5  15   46.09    4.54
   9   5  15   48.07    4.28
  11  -5  15    5.26    2.55
  11   5  15    4.89    2.28
  40  -6 -15    7.83    2.23
 -40  -6  15    6.90    2.70
  40   6 -15    8.47    2.48
 -38  -6  15    9.19    2.77
  38   6 -15    9.75    2.54
 -36  -6  15   -0.98    1.90
  36   6 -15    1.07    1.76
 -34  -6  15    0.31    1.93
  34   6 -15   -0.28    1.46
 -32  -6  15    8.11    2.35
  32   6 -15   12.42    2.41
 -30  -6  15    1.78    1.92
  30   6 -15    3.59    1.69
 -28  -6  15   -1.99    1.61
  28   6 -15    1.99    1.47
 -26  -6  15    6.58    2.07
  26   6 -15    8.62    1.92
 -24  -6  15   -1.82    1.39
  24   6 -15    0.73    1.35
 -22  -6  15    0.26    1.39
  22   6 -15    0.56    1.25
 -20  -6  15    1.36    1.52
  20   6 -15    1.56    1.21
  18  -6 -15   23.47    1.24
  18  -6 -15   20.76    1.15
 -18  -6  15   23.29    2.67
  18   6 -15   20.30    2.38
 -16  -6  15    0.50    1.37
  16   6 -15   -0.14    1.06
 -16   6  15    0.28    0.53
  14  -6 -15   11.50    0.81
 -14  -6  15   10.55    2.06
 -14   6  15    9.45    1.13
  14   6 -15   11.99    1.92
 -12  -6  15   13.68    2.26
  12  -6 -15   16.33    1.27
 -12   6  15   13.75    1.44
  10  -6 -15    0.57    0.79
 -10  -6  15    0.92    1.44
 -10   6  15    0.68    0.89
  -8  -6  15    7.84    1.93
  -8   6  15   10.36    1.58
  -6  -6  15    0.07    1.38
  -6   6  15    0.50    0.96
  -4  -6  15    5.88    1.83
  -4   6  15    7.36    1.57
  -2  -6  15    4.24    1.76
  -2   6  15    2.18    1.34
   0  -6  15   31.87    3.58
   0   6  15   30.40    2.99
   2  -6  15    0.01    1.61
   2   6  15    1.51    1.38
   4  -6  15    1.87    1.93
   4   6  15    4.08    1.70
   6  -6  15   -0.78    1.82
   6  -6  15   -0.39    1.73
   6   6  15    0.73    1.46
   8  -6  15    0.99    2.11
   8  -6  15    3.63    2.19
   8   6  15    6.79    2.26
  10  -6  15    3.36    2.43
  10  -6  15    1.68    2.12
  10   6  15    2.11    2.04
 -39  -7  15   12.43    3.24
  39   7 -15   18.73    3.17
 -37  -7  15    5.33    2.53
  37   7 -15    6.05    2.40
 -35  -7  15   31.27    4.03
  35   7 -15   47.80    4.40
 -33  -7  15    1.27    2.08
  33   7 -15   -1.20    1.57
 -31  -7  15   62.73    4.76
  31   7 -15   51.86    4.27
 -29  -7  15    5.00    2.15
  29   7 -15   -0.82    1.30
 -27  -7  15   68.77    4.69
  27   7 -15   79.94    4.60
 -25  -7  15    1.62    1.67
  25   7 -15    0.21    1.31
 -23  -7  15  101.04    5.37
  23   7 -15  103.49    5.02
 -21  -7  15    8.51    2.12
  21   7 -15   12.25    2.17
 -19  -7  15   75.81    4.52
  19   7 -15   81.83    4.39
 -17  -7  15   37.96    3.62
  17   7 -15   35.51    3.21
 -15  -7  15   45.96    3.97
 -15   7  15   45.06    2.04
  15   7 -15   43.74    3.55
 -13  -7  15   62.09    4.07
 -13   7  15   52.27    2.45
 -11  -7  15   19.18    2.69
 -11   7  15   17.00    1.69
  -9  -7  15  125.78    5.83
  -9   7  15  117.80    4.47
  -7  -7  15   20.29    2.90
  -7   7  15   16.37    1.92
  -5  -7  15   70.72    4.58
  -5   7  15   83.41    3.90
  -3  -7  15   11.06    2.54
  -3   7  15   11.20    1.89
  -1  -7  15   38.19    3.96
  -1   7  15   44.30    3.52
   1  -7  15   13.11    2.73
   1   7  15   15.79    2.40
   3  -7  15   14.24    2.81
   3   7  15   15.05    2.57
   5  -7  15   32.37    4.00
   5   7  15   31.36    3.41
   7  -7  15    2.97    2.34
   7  -7  15   -3.25    2.03
   7   7  15    2.07    1.77
   9  -7  15   21.34    3.56
   9  -7  15   22.63    3.44
   9   7  15   21.86    3.23
 -36  -8  15    2.79    2.53
  36   8 -15    2.08    1.96
 -34  -8  15    1.56    2.31
  34   8 -15    0.11    1.94
 -32  -8  15    3.96    2.29
  32   8 -15    3.88    2.04
 -30  -8  15    3.10    2.16
  30   8 -15    5.94    2.14
 -28  -8  15   -1.26    1.86
  28   8 -15    0.13    1.70
 -26  -8  15    5.19    2.24
  26   8 -15    7.87    2.10
 -24  -8  15   -1.24    1.67
  24   8 -15   -0.79    1.44
 -22  -8  15    5.64    2.12
  22   8 -15    1.17    1.61
 -20  -8  15   14.73    2.68
  20   8 -15    8.39    2.04
 -18  -8  15    8.80    2.20
  18   8 -15    7.49    2.07
 -16  -8  15   41.10    3.91
  16   8 -15   31.55    3.10
 -14  -8  15    2.11    1.77
 -12  -8  15    8.64    2.30
 -12   8  15    7.02    1.27
 -10  -8  15    1.45    1.74
 -10   8  15   -0.74    0.98
  -8  -8  15    0.16    1.67
  -8   8  15    0.93    1.10
  -6  -8  15   25.24    3.30
  -6   8  15   26.00    2.53
  -4  -8  15    0.80    1.75
  -4   8  15    1.06    1.29
  -2  -8  15   -2.03    1.53
  -2   8  15    0.38    1.45
   0  -8  15   -0.44    1.81
   0   8  15   -1.52    1.34
   2  -8  15    3.19    2.01
   2   8  15    1.91    1.68
   4  -8  15    0.29    1.88
   4   8  15    1.05    1.70
   6  -8  15   -2.11    1.89
   6   8  15    2.32    1.80
 -33  -9  15   14.52    3.08
  33   9 -15   13.82    2.94
 -31  -9  15    8.80    2.82
  31   9 -15    6.58    2.48
 -29  -9  15    4.43    2.23
  29   9 -15    5.08    2.06
 -27  -9  15    2.66    2.13
  27   9 -15    6.81    2.08
 -25  -9  15    1.09    2.00
  25   9 -15    0.72    1.78
 -23  -9  15   95.39    5.65
  23   9 -15   87.61    5.25
 -21  -9  15   13.90    2.62
  21   9 -15   13.53    2.48
 -19  -9  15   19.01    2.89
  19   9 -15   23.72    3.05
 -17  -9  15    6.00    2.18
  17   9 -15   -0.32    1.56
 -15  -9  15    8.28    2.35
 -13  -9  15   33.58    3.61
 -11  -9  15    5.36    2.14
 -11   9  15    1.56    1.08
  -9  -9  15   69.59    4.75
  -9   9  15   67.37    3.46
  -7  -9  15    1.48    1.85
  -7   9  15    0.60    1.31
  -5  -9  15   13.02    2.62
  -5   9  15   16.96    2.27
  -3  -9  15   -0.65    1.77
  -3   9  15    3.05    1.54
  -1  -9  15   26.70    3.61
  -1   9  15   25.41    2.94
   1  -9  15   39.85    4.14
   1   9  15   37.11    3.72
   3  -9  15   32.71    4.00
   3   9  15   22.02    3.08
 -30 -10  15    2.25    2.26
  30  10 -15    2.82    2.10
 -28 -10  15    2.72    2.27
  28  10 -15    3.66    2.24
 -26 -10  15    1.13    2.09
  26  10 -15    0.33    1.99
 -24 -10  15    6.98    2.66
  24  10 -15    2.96    2.11
 -22 -10  15   12.00    2.74
  22  10 -15   10.52    2.48
 -20 -10  15   16.78    2.91
  20  10 -15   10.58    2.54
 -18 -10  15   11.05    2.52
  18  10 -15    5.09    2.14
 -16 -10  15   14.27    2.84
 -14 -10  15    1.16    1.93
 -12 -10  15    5.32    2.24
 -10 -10  15    0.91    1.90
  -8 -10  15    2.78    1.94
  -8  10  15    2.89    1.45
  -6 -10  15    0.16    1.87
  -6  10  15   -1.13    1.32
  -4 -10  15    7.93    2.31
  -4  10  15    3.75    1.74
  -2 -10  15    6.78    2.52
  -2  10  15    8.66    2.18
   0 -10  15    5.67    2.31
   0  10  15    0.22    1.68
 -25 -11  15    6.03    2.52
  25  11 -15    8.89    2.65
 -23 -11  15   30.85    3.98
  23  11 -15   26.90    3.77
 -21 -11  15    8.33    2.58
  21  11 -15    6.00    2.58
 -19 -11  15    9.10    2.59
  19  11 -15    8.38    2.59
 -17 -11  15    3.50    2.20
 -15 -11  15    4.01    2.17
 -13 -11  15   30.13    3.81
 -11 -11  15    8.48    2.65
  -9 -11  15   83.35    5.51
  -7 -11  15    1.57    2.17
  -5 -11  15   25.65    3.55
  44   0 -16   18.41    2.92
  42   0 -16   44.41    4.15
  40   0 -16    4.39    1.82
  38   0 -16   92.36    4.88
  36   0 -16   -0.32    1.29
 -34   0  16   62.74    3.61
  34   0 -16   68.03    3.79
  32   0 -16    0.19    1.04
 -32   0  16    0.86    1.16
 -30   0  16   96.90    4.25
  30   0 -16  102.25    4.30
  28   0 -16   89.26    3.77
 -28   0  16   85.38    3.25
 -28   0  16   89.05    3.84
 -26   0  16   12.17    1.29
  26   0 -16   15.05    1.70
 -26   0  16    9.83    1.52
 -24   0  16  118.08    3.94
  24   0 -16  123.91    4.32
 -24   0  16  123.50    4.50
 -22   0  16   50.00    2.72
  22   0 -16   51.01    2.43
  20   0 -16  110.17    3.79
 -20   0  16  118.60    4.26
 -20   0  16  113.78    3.80
  18   0 -16   11.42    1.16
 -18   0  16   11.07    1.16
 -18   0  16   11.18    1.50
  16   0 -16   67.42    2.53
 -16   0  16   62.61    3.05
 -16   0  16   66.49    2.50
 -14   0  16   15.36    1.82
  14   0 -16   17.91    1.28
 -14   0  16   17.37    1.28
 -12   0  16   55.98    2.20
 -12   0  16   59.56    3.05
 -10   0  16   -0.76    0.93
 -10   0  16    0.27    0.55
  -8   0  16  204.34    6.60
  -8   0  16  204.28    6.72
  -8   0  16  197.22    5.58
  -6   0  16    3.01    0.80
  -6   0  16    1.75    1.27
  -6   0  16    1.33    1.19
  -4   0  16   87.99    3.26
  -4   0  16   87.84    4.21
  -4   0  16   85.61    4.24
  -2   0  16    4.29    1.51
  -2   0  16    4.21    1.54
   0   0  16   22.31    2.69
   0   0  16   17.08    2.45
   2   0  16   12.83    2.27
   2   0  16    8.31    1.92
   4   0  16   55.88    3.90
   6   0  16   63.56    4.26
   8   0  16    1.63    1.80
  10   0  16   23.67    3.37
  12   0  16    2.28    2.00
  45  -1 -16    3.86    2.17
  45   1 -16    6.85    2.30
  43  -1 -16    3.00    1.96
  43   1 -16    5.07    2.05
  41  -1 -16    0.10    1.42
  41   1 -16    1.43    1.52
  39  -1 -16    0.68    1.38
  39   1 -16   -2.53    1.32
  37  -1 -16   17.44    2.44
  37   1 -16   18.77    2.49
  35  -1 -16   -0.33    1.17
  35   1 -16   -0.05    1.17
  33  -1 -16    0.82    1.17
 -33  -1  16    1.25    1.36
 -33   1  16    1.14    1.18
  33   1 -16    2.48    1.25
  31  -1 -16    2.98    1.22
 -31  -1  16    3.21    1.44
 -31   1  16    3.21    0.85
 -31   1  16    2.61    1.21
  31   1 -16    2.82    1.25
 -29  -1  16   31.97    2.73
  29  -1 -16   30.86    2.27
 -29   1  16   30.90    2.29
  29   1 -16   30.43    2.59
 -29   1  16   27.62    1.64
  27  -1 -16    1.11    0.94
 -27  -1  16    2.77    1.30
 -27   1  16    0.44    0.59
 -27   1  16    1.14    0.95
  27   1 -16    1.04    0.98
  25  -1 -16   -0.25    0.69
 -25  -1  16   -0.24    1.00
  25   1 -16   -0.78    0.79
 -25   1  16   -0.33    0.83
 -25   1  16    0.44    0.58
 -23  -1  16   13.69    1.76
  23  -1 -16   14.64    1.43
  23   1 -16   15.90    1.64
 -23   1  16   15.09    1.56
  21  -1 -16   -0.23    0.59
 -21  -1  16   -0.48    0.98
  21   1 -16    0.71    0.77
 -21   1  16    0.02    0.80
  19  -1 -16   67.53    2.54
 -19  -1  16   70.00    3.37
  19  -1 -16   76.03    2.91
  19   1 -16   66.87    2.88
 -19   1  16   70.56    2.96
 -17  -1  16    2.83    1.23
  17  -1 -16    4.01    0.70
 -17  -1  16    4.64    0.90
  17  -1 -16    3.11    0.84
 -17   1  16    4.10    0.72
  17   1 -16    2.61    0.85
 -17   1  16    3.14    1.02
  15  -1 -16   34.39    1.55
  15  -1 -16   37.05    2.07
 -15  -1  16   34.92    2.73
 -15  -1  16   39.53    1.97
  15   1 -16   34.12    1.93
 -15   1  16   34.41    1.54
 -15   1  16   35.97    2.22
 -13  -1  16    1.75    1.14
 -13  -1  16    3.90    0.81
 -13   1  16    3.06    1.11
 -13   1  16    3.22    0.58
 -11  -1  16    3.83    0.86
 -11  -1  16    6.24    1.54
 -11   1  16    3.42    1.19
 -11   1  16    5.17    1.25
 -11   1  16    4.03    0.62
  -9  -1  16    0.44    0.62
  -9  -1  16    0.47    1.08
  -9   1  16   -0.17    0.93
  -9   1  16    0.85    0.95
  -9   1  16   -0.79    0.41
  -7  -1  16    5.74    1.57
  -7   1  16    2.72    0.65
  -7   1  16    3.65    1.28
  -7   1  16    3.04    1.22
  -5  -1  16   12.69    1.92
  -5  -1  16   16.10    2.23
  -5   1  16   13.28    1.84
  -5   1  16   13.69    1.20
  -5   1  16   15.68    2.10
  -3  -1  16    8.48    1.93
  -3  -1  16   13.20    2.13
  -3   1  16    7.95    1.63
  -3   1  16   11.85    1.97
  -3   1  16   12.55    1.24
  -1  -1  16   -0.36    1.21
  -1  -1  16    0.02    1.38
  -1   1  16    1.45    1.20
  -1   1  16    1.61    1.34
   1  -1  16    1.16    1.47
   1  -1  16    1.16    1.46
   1   1  16    2.54    1.45
   3  -1  16   12.20    2.35
   3  -1  16    8.54    2.22
   3   1  16    8.39    1.91
   5  -1  16    8.43    2.16
   5   1  16    7.24    1.98
   7  -1  16    3.89    2.04
   7   1  16    1.18    1.56
   9  -1  16   14.88    2.87
   9   1  16   15.00    2.65
  11  -1  16   -0.01    1.73
  11   1  16   -2.12    1.78
  13  -1  16    8.04    2.57
  13   1  16    6.32    2.31
  44  -2 -16   18.81    3.05
  44   2 -16   11.09    2.50
  42  -2 -16   40.26    3.93
  42   2 -16   39.18    3.99
  40  -2 -16    2.57    1.74
  40   2 -16    5.80    2.00
  38  -2 -16   56.61    3.83
  38   2 -16   56.72    4.07
  36  -2 -16    0.97    1.34
  36   2 -16    5.17    1.86
  34  -2 -16   37.30    3.07
 -34  -2  16   39.58    3.43
  34   2 -16   41.90    3.49
 -34   2  16   32.79    2.57
 -32  -2  16    1.02    1.39
  32  -2 -16   -0.24    0.95
 -32   2  16    0.57    1.03
  32   2 -16   -0.29    1.09
 -30  -2  16   74.10    4.08
  30  -2 -16   74.04    3.53
  30   2 -16   67.56    3.71
 -30   2  16   71.88    3.18
 -30   2  16   74.24    2.44
  28  -2 -16   49.55    2.74
 -28  -2  16   52.98    3.35
 -28   2  16   51.69    2.51
 -28   2  16   52.27    1.89
  28   2 -16   52.23    3.08
 -26  -2  16   65.97    3.61
  26  -2 -16   75.20    3.13
 -26   2  16   74.01    2.32
 -26   2  16   74.36    2.95
  26   2 -16   60.36    3.27
  24  -2 -16   66.85    2.82
 -24  -2  16   65.87    3.57
 -24   2  16   63.67    2.69
  24   2 -16   66.13    3.19
 -24   2  16   70.79    2.27
 -22  -2  16   50.16    3.01
  22  -2 -16   48.04    2.17
  22   2 -16   47.52    2.60
 -22   2  16   46.81    2.23
 -20  -2  16   93.74    4.17
  20  -2 -16   93.59    3.07
 -20   2  16   94.40    3.36
  20   2 -16  100.71    3.81
  18  -2 -16   21.49    1.47
  18  -2 -16   23.25    1.24
 -18  -2  16   21.52    2.20
 -18   2  16   23.66    1.74
  18   2 -16   26.31    2.04
  16  -2 -16  144.51    3.84
 -16  -2  16  148.18    5.45
  16  -2 -16  143.01    4.50
 -16   2  16  148.61    4.56
 -16   2  16  144.51    4.65
  16   2 -16  147.97    4.83
 -14  -2  16   26.80    2.54
  14  -2 -16   27.30    1.76
 -14   2  16   26.44    1.85
  14   2 -16   28.93    1.91
 -14   2  16   29.23    2.00
 -12  -2  16   56.12    3.27
 -12   2  16   52.77    2.70
 -12   2  16   51.75    2.64
 -10  -2  16    3.52    1.30
 -10   2  16    5.75    0.47
 -10   2  16    4.38    1.11
 -10   2  16    5.45    1.22
  -8  -2  16  149.25    5.77
  -8   2  16  158.21    5.39
  -8   2  16  151.18    3.90
  -8   2  16  158.01    5.45
  -6  -2  16   35.13    3.10
  -6   2  16   31.87    1.38
  -6   2  16   35.28    2.58
  -6   2  16   30.87    2.58
  -4  -2  16   65.67    3.86
  -4   2  16   72.30    3.70
  -4   2  16   69.56    2.42
  -2  -2  16   81.50    4.49
  -2  -2  16   85.11    4.44
  -2   2  16   67.28    3.74
   0  -2  16   41.51    3.62
   0  -2  16   35.58    3.38
   0   2  16   36.48    3.22
   2  -2  16   84.18    4.65
   2  -2  16   70.33    4.50
   2   2  16   70.03    4.08
   4  -2  16   31.46    3.46
   4  -2  16   32.34    3.58
   4   2  16   30.50    3.24
   6  -2  16   42.51    3.93
   6  -2  16   53.37    4.58
   6   2  16   43.36    3.91
   8  -2  16    4.32    2.24
   8   2  16    3.44    1.82
  10  -2  16   24.64    3.51
  10   2  16   28.01    3.48
  10   2  16   22.87    2.54
  12  -2  16   23.22    3.54
  12   2  16   23.48    3.53
  43  -3 -16    0.28    1.74
  43   3 -16    0.47    1.86
  41  -3 -16    6.35    2.11
  41   3 -16    8.04    2.31
  39  -3 -16   -0.04    1.38
  39   3 -16    1.01    1.57
  37  -3 -16   13.52    2.20
  37   3 -16   14.90    2.39
  35  -3 -16    4.29    1.54
 -35  -3  16    6.96    2.01
  35   3 -16    8.27    1.99
 -35   3  16    8.35    1.50
 -33  -3  16   23.88    2.79
  33  -3 -16   18.51    2.22
  33   3 -16   18.34    2.41
 -33   3  16   21.16    1.92
  31  -3 -16    8.72    1.52
 -31  -3  16   10.07    2.12
  31   3 -16   13.74    2.13
 -31   3  16   11.78    1.39
 -29  -3  16    9.21    2.06
  29  -3 -16   13.06    1.67
 -29   3  16   11.69    1.31
  29   3 -16    9.96    1.74
 -27  -3  16    4.58    1.59
  27  -3 -16    4.68    1.10
  27   3 -16    3.80    1.35
 -27   3  16    3.85    0.89
  25  -3 -16   -0.01    0.68
 -25  -3  16   -1.18    1.03
  25   3 -16    0.51    1.02
 -25   3  16    0.19    0.62
  23  -3 -16   70.61    2.73
 -23  -3  16   68.29    3.80
 -23   3  16   68.88    2.02
 -23   3  16   72.93    2.01
 -23   3  16   70.17    2.53
  23   3 -16   72.91    3.46
  21  -3 -16    2.99    0.67
 -21  -3  16    3.25    1.26
 -21   3  16    3.46    0.59
  21   3 -16    2.15    1.03
 -21   3  16    4.00    0.79
 -19  -3  16    0.16    1.18
  19  -3 -16    0.09    0.44
 -19   3  16    0.92    0.58
 -19   3  16    1.22    0.65
  19   3 -16    0.11    0.86
 -17  -3  16    0.32    1.13
  17  -3 -16    0.82    0.34
  17  -3 -16    1.10    0.58
 -17   3  16    1.18    0.64
 -17   3  16    1.22    0.69
  17   3 -16    1.26    0.95
 -15  -3  16    8.82    1.65
  15  -3 -16    9.95    1.12
 -15   3  16    9.40    1.19
 -15   3  16    9.73    1.15
  15   3 -16    6.77    1.22
  13  -3 -16   19.01    1.47
 -13  -3  16   18.04    2.24
 -13   3  16   20.77    1.76
 -13   3  16   19.99    1.70
  13   3 -16   19.29    1.76
  11  -3 -16   -0.14    0.66
 -11  -3  16    0.82    1.11
 -11   3  16    0.48    0.81
 -11   3  16    2.43    0.90
  -9  -3  16    3.66    1.39
  -9   3  16    2.88    1.04
  -9   3  16    6.24    1.24
  -7  -3  16    0.09    1.35
  -7   3  16    0.13    0.98
  -5  -3  16   10.09    2.05
  -5   3  16   11.43    1.68
  -5   3  16   11.36    0.71
  -5   3  16   11.61    0.72
  -3  -3  16   11.66    2.15
  -3   3  16   15.19    2.09
  -3   3  16   13.68    1.02
  -3   3  16   14.34    1.05
  -1  -3  16    6.45    1.80
  -1   3  16    7.36    0.98
  -1   3  16    4.76    1.45
   1  -3  16    8.14    2.16
   1  -3  16   10.79    2.26
   1   3  16   13.19    2.20
   1   3  16   11.98    1.34
   3  -3  16    0.45    1.70
   3  -3  16   -1.18    1.47
   3   3  16    1.33    1.39
   3   3  16    0.88    0.90
   5  -3  16   16.85    2.90
   5  -3  16   13.36    2.54
   5   3  16   13.51    1.67
   5   3  16   15.32    2.61
   7  -3  16   -0.31    1.92
   7  -3  16    2.73    2.15
   7   3  16    4.72    2.07
   7   3  16    1.14    1.62
   9  -3  16   -1.86    1.74
   9   3  16    2.37    1.72
  11  -3  16   -0.05    2.07
  11   3  16    3.17    2.21
  42  -4 -16   17.91    2.74
  42   4 -16   15.57    2.97
  40  -4 -16    5.12    1.93
  40   4 -16    2.65    1.99
  38  -4 -16   26.11    2.93
 -38  -4  16   22.44    3.23
  38   4 -16   20.25    2.87
 -36  -4  16   10.86    2.58
  36  -4 -16    6.74    1.74
  36   4 -16   12.23    2.38
 -34  -4  16   57.22    4.28
  34  -4 -16   54.18    3.43
  34   4 -16   55.86    3.77
 -34   4  16   57.28    3.05
 -32  -4  16    2.39    1.71
  32  -4 -16    1.30    1.14
  32   4 -16    1.32    1.29
 -32   4  16    2.07    0.89
 -30  -4  16   90.05    4.85
  30  -4 -16   97.86    4.06
  30   4 -16   97.34    4.60
 -30   4  16   96.65    3.17
  28  -4 -16    0.96    0.87
 -28  -4  16    1.57    1.55
  28   4 -16    1.15    1.18
 -28   4  16    0.38    0.58
  26  -4 -16    5.53    1.08
 -26  -4  16    5.06    1.77
 -26   4  16    4.62    0.72
  26   4 -16    2.78    1.31
 -24  -4  16    0.84    1.46
  24  -4 -16    2.27    0.77
  24   4 -16    4.15    1.22
 -24   4  16    1.67    0.49
 -22  -4  16   -2.27    1.15
  22  -4 -16   -0.31    0.51
 -22   4  16    0.55    0.44
  22   4 -16   -0.40    0.98
  20  -4 -16   71.12    2.34
  20   4 -16   69.81    3.48
 -20   4  16   66.97    2.19
 -20   4  16   70.36    2.08
  18  -4 -16   11.24    0.71
 -18  -4  16   11.56    1.88
 -18   4  16   13.54    1.06
 -18   4  16   13.95    1.06
  18   4 -16   13.02    1.69
 -16  -4  16  153.28    5.84
  16  -4 -16  143.95    4.18
  16   4 -16  139.49    5.21
 -16   4  16  149.15    4.34
 -14  -4  16   14.31    2.12
  14  -4 -16   17.02    1.38
  14   4 -16   17.46    1.88
 -14   4  16   20.46    1.61
 -12  -4  16   91.82    4.47
  12  -4 -16   94.73    3.36
 -12   4  16   94.90    3.51
 -10  -4  16    6.29    1.77
 -10   4  16    6.47    1.23
  -8  -4  16   74.47    4.19
  -8   4  16   73.95    3.40
  -6  -4  16  112.75    5.30
  -6   4  16  114.44    4.55
  -4  -4  16   62.55    4.03
  -4   4  16   66.46    3.51
  -2  -4  16   72.10    4.48
  -2   4  16   77.70    4.03
  -2   4  16   76.83    2.32
   0  -4  16    2.02    1.66
   0   4  16    2.83    1.40
   0   4  16    4.18    0.78
   2  -4  16   42.50    4.07
   2  -4  16   41.86    3.85
   2   4  16   33.64    3.31
   4  -4  16    1.94    2.04
   4  -4  16    1.09    1.78
   4   4  16    0.95    1.59
   6  -4  16  101.70    5.69
   6  -4  16  106.97    6.02
   6   4  16  115.28    5.74
   8  -4  16    3.18    1.97
   8  -4  16    2.96    2.05
   8   4  16    1.19    1.77
  10  -4  16   54.01    4.78
  10   4  16   47.61    4.51
  41  -5 -16    6.66    2.15
 -41  -5  16    6.95    2.65
  41   5 -16    3.96    2.27
 -39  -5  16    3.20    2.30
  39  -5 -16    1.98    1.65
  39   5 -16    1.04    1.89
  37  -5 -16    0.47    1.40
 -37  -5  16    0.13    2.03
  37   5 -16    0.36    1.67
  35  -5 -16    0.76    1.33
 -35  -5  16    1.03    2.08
  35   5 -16    5.64    1.88
 -33  -5  16    2.55    2.05
  33  -5 -16    0.80    1.18
  33   5 -16    4.21    1.82
  31  -5 -16    2.53    1.22
 -31  -5  16    2.52    1.82
  31   5 -16    1.68    1.34
 -29  -5  16    0.40    1.64
  29  -5 -16   -0.61    0.86
  29   5 -16    0.46    1.26
  27  -5 -16    0.58    0.84
 -27  -5  16   -0.19    1.48
  27   5 -16    0.32    1.23
 -25  -5  16    1.11    1.48
  25  -5 -16    3.48    0.96
  25   5 -16    1.77    1.32
 -23  -5  16   20.52    2.64
  23  -5 -16   19.61    1.50
  23   5 -16   12.95    1.94
 -21  -5  16   20.86    2.57
  21  -5 -16   19.35    1.25
  21   5 -16   18.81    2.11
 -19  -5  16    1.71    1.54
  19  -5 -16    0.27    0.38
  19   5 -16    2.01    1.18
 -19   5  16    0.76    0.42
 -17  -5  16    7.14    1.75
  17  -5 -16   10.58    0.75
 -17   5  16    9.98    0.99
  17   5 -16   11.38    1.77
  15  -5 -16   28.41    1.39
 -15  -5  16   27.45    2.81
 -15   5  16   25.91    1.63
  15   5 -16   23.85    2.35
 -13  -5  16   -1.48    1.14
  13  -5 -16    0.66    0.60
 -13   5  16    0.38    0.73
  11  -5 -16   20.47    1.69
 -11  -5  16   14.70    2.36
 -11   5  16   18.54    1.79
  -9  -5  16   12.28    2.29
  -9   5  16   12.66    1.69
  -7  -5  16   12.28    2.31
  -7   5  16   10.54    1.67
  -5  -5  16    0.28    1.37
  -5   5  16    0.45    1.00
  -3  -5  16    1.65    1.77
  -3   5  16   -0.71    1.05
  -1  -5  16   10.24    2.41
  -1   5  16   10.17    2.01
   1  -5  16    0.28    1.64
   1   5  16    1.51    1.40
   3  -5  16   -1.03    1.72
   3  -5  16   -1.37    1.79
   3   5  16    1.14    1.43
   5  -5  16    1.14    1.92
   5  -5  16    3.26    2.01
   5   5  16   -0.74    1.40
   7  -5  16    2.42    2.22
   7  -5  16    2.73    2.04
   7   5  16    1.38    1.73
   9  -5  16   -0.12    1.97
   9  -5  16   -0.27    2.08
   9   5  16   -1.78    1.43
  40  -6 -16   19.68    2.84
 -40  -6  16   17.11    3.29
  40   6 -16   19.58    3.15
 -38  -6  16   66.92    5.19
  38  -6 -16   54.00    3.87
  38   6 -16   57.19    4.93
  36  -6 -16   -1.55    1.19
 -36  -6  16   -1.11    2.00
  36   6 -16   -1.85    1.44
 -34  -6  16   65.06    4.82
  34   6 -16   60.62    4.33
 -32  -6  16   14.75    2.69
  32   6 -16   15.32    2.42
 -30  -6  16   35.58    3.59
  30   6 -16   38.64    3.42
 -28  -6  16   16.92    2.89
  28   6 -16   24.43    2.85
 -26  -6  16   37.76    3.58
  26   6 -16   40.36    3.35
 -24  -6  16   36.79    3.57
  24   6 -16   30.52    2.88
  22  -6 -16    1.08    0.66
 -22  -6  16    1.28    1.56
  22   6 -16    1.55    1.21
 -20  -6  16   49.51    3.77
  20  -6 -16   55.98    2.00
  20   6 -16   52.95    3.48
 -18  -6  16   -0.37    1.48
 -18   6  16   -0.23    0.47
  18   6 -16    1.92    1.27
 -16  -6  16   78.95    4.53
  16   6 -16   82.29    4.14
 -16   6  16   78.87    2.77
 -14  -6  16   -0.10    1.52
  14   6 -16   -1.70    1.08
 -14   6  16    1.48    0.76
 -12  -6  16   35.33    3.47
 -12   6  16   31.70    2.09
 -10  -6  16   -0.26    1.43
 -10   6  16    2.39    1.05
  -8  -6  16   13.90    2.36
  -8   6  16   18.50    1.95
  -6  -6  16   25.24    3.15
  -6   6  16   22.36    2.26
  -4  -6  16   61.03    4.26
  -4   6  16   55.33    3.35
  -2  -6  16   12.42    2.50
  -2   6  16   14.99    2.26
   0  -6  16   47.08    4.36
   0   6  16   34.23    3.20
   2  -6  16   20.95    3.10
   2   6  16   32.49    3.29
   4  -6  16   -2.01    1.65
   4  -6  16   -0.78    1.87
   4   6  16    1.09    1.48
   6  -6  16   32.34    3.90
   6  -6  16   21.96    3.42
   6   6  16   29.84    3.41
   8  -6  16    1.00    2.12
   8  -6  16    1.13    2.33
   8   6  16   -0.26    1.70
 -39  -7  16    1.69    2.34
  39   7 -16    1.40    1.95
 -37  -7  16   -1.03    2.24
  37   7 -16    0.86    1.62
 -35  -7  16   13.20    2.87
  35   7 -16    8.56    2.33
 -33  -7  16    3.96    2.29
  33   7 -16    3.09    1.74
 -31  -7  16   21.18    3.06
  31   7 -16   24.08    3.18
 -29  -7  16    5.69    2.28
  29   7 -16    3.25    1.86
 -27  -7  16    0.04    1.72
  27   7 -16    2.38    1.70
 -25  -7  16    0.59    1.78
  25   7 -16    1.53    1.55
 -23  -7  16    2.05    1.84
  23   7 -16    1.03    1.40
 -21  -7  16   14.07    2.32
  21   7 -16   15.08    2.40
 -19  -7  16    3.81    1.79
  19   7 -16    1.22    1.33
 -17  -7  16    8.14    2.13
  17   7 -16    7.93    1.84
 -15  -7  16   12.38    2.36
 -15   7  16   14.83    1.37
  15   7 -16   11.99    1.97
 -13  -7  16    5.52    1.94
 -13   7  16    1.88    0.91
 -11  -7  16    1.20    1.62
 -11   7  16    0.68    0.98
  -9  -7  16   -1.26    1.48
  -9   7  16   -0.69    0.97
  -7  -7  16    5.08    1.94
  -7   7  16    7.63    1.62
  -5  -7  16    0.96    1.64
  -5   7  16    4.88    1.55
  -3  -7  16    6.34    2.07
  -3   7  16    8.59    1.94
  -1  -7  16   15.94    2.77
  -1   7  16   20.23    2.64
   1  -7  16    1.88    2.02
   1   7  16   -1.80    1.44
   3  -7  16   -1.87    1.77
   3   7  16   -0.20    1.70
   5  -7  16   -0.19    2.24
   5  -7  16    1.84    2.21
   5   7  16   -0.71    1.57
   7  -7  16    2.85    2.43
   7  -7  16    0.69    2.26
   7   7  16   -0.02    1.69
 -36  -8  16    3.48    2.71
  36   8 -16    6.16    2.44
 -34  -8  16   33.11    4.10
  34   8 -16   30.98    3.52
 -32  -8  16    8.86    2.78
  32   8 -16    6.04    2.10
 -30  -8  16   11.79    2.70
  30   8 -16   22.36    3.22
 -28  -8  16    2.58    2.01
  28   8 -16   -0.23    1.65
 -26  -8  16   46.23    4.34
  26   8 -16   50.12    4.24
 -24  -8  16   15.98    2.73
  24   8 -16   19.84    2.70
 -22  -8  16   32.38    3.57
  22   8 -16   32.11    3.26
 -20  -8  16   14.46    2.59
  20   8 -16   15.89    2.51
 -18  -8  16    5.39    2.10
  18   8 -16    4.24    1.74
 -16  -8  16   14.95    2.74
  16   8 -16   13.09    2.34
 -14  -8  16   -1.96    1.71
 -14   8  16    0.96    0.88
 -12  -8  16  170.70    7.34
 -12   8  16  177.47    5.68
 -10  -8  16   12.66    2.50
 -10   8  16   12.57    1.73
  -8  -8  16   63.59    4.52
  -8   8  16   64.13    3.47
  -6  -8  16   13.17    2.68
  -6   8  16    7.93    1.75
  -4  -8  16   21.09    3.20
  -4   8  16   18.91    2.42
  -2  -8  16   41.01    4.03
  -2   8  16   36.12    3.29
   0  -8  16   24.25    3.57
   0   8  16   19.65    2.78
   2  -8  16   38.50    4.18
   2   8  16   41.57    3.90
   4  -8  16    0.19    1.96
   4   8  16   -0.29    1.79
 -33  -9  16    0.03    2.25
  33   9 -16    1.72    2.26
 -31  -9  16    4.94    2.47
  31   9 -16    7.34    2.40
 -29  -9  16    3.35    2.37
  29   9 -16    4.07    2.05
 -27  -9  16    1.57    2.18
  27   9 -16   -0.02    1.71
 -25  -9  16    0.26    1.89
  25   9 -16    0.43    1.70
 -23  -9  16    6.81    2.39
  23   9 -16    2.54    1.91
 -21  -9  16   -0.62    1.71
  21   9 -16   -1.33    1.64
 -19  -9  16    9.98    2.43
  19   9 -16   11.76    2.45
 -17  -9  16   -0.31    1.86
  17   9 -16   -1.94    1.37
 -15  -9  16   16.06    2.94
 -13  -9  16    3.36    2.06
 -11  -9  16    1.27    1.83
 -11   9  16    1.81    1.18
  -9  -9  16   10.16    2.54
  -9   9  16    8.34    1.74
  -7  -9  16    0.35    1.91
  -7   9  16    2.70    1.44
  -5  -9  16   11.20    2.60
  -5   9  16   13.34    2.18
  -3  -9  16   -0.36    1.86
  -3   9  16    0.94    1.57
  -1  -9  16   -1.77    1.83
  -1   9  16   -0.72    1.56
   1  -9  16    1.47    2.14
   1   9  16    0.41    1.73
 -30 -10  16    4.92    2.61
  30  10 -16    0.53    2.05
 -28 -10  16    2.86    2.31
  28  10 -16    6.78    2.39
 -26 -10  16   20.33    3.43
  26  10 -16   20.13    3.28
 -24 -10  16   40.68    4.27
  24  10 -16   45.68    4.20
 -22 -10  16   18.48    3.12
  22  10 -16   16.69    2.81
 -20 -10  16   16.99    3.15
  20  10 -16   23.15    3.35
 -18 -10  16   -2.22    1.71
  18  10 -16    1.40    1.83
 -16 -10  16    8.89    2.45
 -14 -10  16    2.22    2.11
 -12 -10  16   69.06    4.98
 -10 -10  16    2.41    2.13
  -8 -10  16   31.30    3.91
  -8  10  16   36.60    4.52
  -6 -10  16   -1.09    1.83
  -6  10  16   -1.01    1.35
  -4 -10  16   15.72    3.17
  -4  10  16    9.42    2.17
  -2 -10  16   12.56    2.91
  -2  10  16   11.04    2.29
 -25 -11  16    3.67    2.29
  25  11 -16   -0.46    2.05
 -23 -11  16    6.36    2.52
  23  11 -16    3.35    2.14
 -21 -11  16   10.81    2.82
  21  11 -16    8.06    2.46
 -19 -11  16    6.95    2.51
 -17 -11  16    0.29    2.04
 -15 -11  16    1.59    2.18
 -13 -11  16    2.08    2.21
 -11 -11  16    3.96    2.40
  -9 -11  16    7.79    2.58
  -7 -11  16   11.99    2.95
  44   0 -17    0.44    1.54
  42   0 -17    0.05    1.47
  40   0 -17    0.50    1.44
  38   0 -17    1.02    1.33
  36   0 -17    0.16    1.17
 -36   0  17    0.62    1.39
 -34   0  17   -1.78    1.16
  34   0 -17    0.11    1.12
 -32   0  17   -0.85    1.10
  32   0 -17   -0.95    0.94
 -30   0  17    0.33    1.18
  30   0 -17    0.18    0.97
 -28   0  17    0.15    0.99
  28   0 -17    0.41    0.88
  26   0 -17   -0.56    0.77
 -26   0  17   -0.47    0.91
 -26   0  17   -0.23    0.72
  24   0 -17   -0.07    0.72
 -24   0  17    0.49    0.95
 -22   0  17   -0.29    0.91
  22   0 -17   -0.82    0.64
 -20   0  17    0.42    0.91
  20   0 -17   -0.22    0.56
 -20   0  17   -0.53    0.62
  18   0 -17    0.55    0.58
 -18   0  17    0.18    0.60
 -18   0  17   -0.83    0.88
 -16   0  17    0.36    0.58
 -16   0  17    0.30    0.96
  16   0 -17   -0.25    0.51
 -14   0  17    0.14    0.55
 -14   0  17    1.81    1.03
 -12   0  17    0.16    0.96
 -12   0  17    0.17    0.54
 -10   0  17    0.68    0.58
 -10   0  17    0.42    1.03
  -8   0  17    0.75    1.11
  -8   0  17   -0.50    1.19
  -8   0  17    0.90    0.65
  -6   0  17   -0.41    1.22
  -6   0  17   -0.56    0.65
  -6   0  17   -0.20    1.18
  -4   0  17    2.23    1.67
  -4   0  17   -1.06    1.27
  -2   0  17   -1.63    1.20
  -2   0  17    1.07    1.27
   0   0  17    1.41    1.53
   0   0  17   -0.15    1.30
   2   0  17    1.02    1.57
   4   0  17    2.01    1.73
   6   0  17    0.97    1.73
   8   0  17    0.30    1.60
  10   0  17   -1.54    1.67
  45  -1 -17   18.31    2.98
  45   1 -17    8.30    2.46
  43  -1 -17   -0.07    1.48
  43   1 -17   -0.37    1.47
  41  -1 -17   39.50    3.63
  41   1 -17   41.80    3.97
  39  -1 -17   23.57    2.80
  39   1 -17   17.81    2.59
 -37  -1  17   45.97    3.74
  37  -1 -17   47.16    3.37
 -37   1  17   45.05    3.22
  37   1 -17   42.12    3.60
 -35  -1  17   -0.96    1.41
  35  -1 -17   -0.18    1.04
 -35   1  17    0.51    1.27
  35   1 -17    2.09    1.33
  33  -1 -17   59.17    3.38
 -33  -1  17   54.47    3.61
  33   1 -17   62.90    3.60
 -33   1  17   54.77    3.20
 -31  -1  17   36.93    2.83
  31  -1 -17   33.46    2.44
  31   1 -17   29.69    2.68
 -31   1  17   31.02    2.42
 -31   1  17   34.44    1.96
 -29  -1  17   -0.31    1.18
  29  -1 -17    1.77    0.97
 -29   1  17   -1.15    0.87
  29   1 -17    0.76    0.96
 -29   1  17   -0.29    0.61
 -27  -1  17  146.32    5.29
  27  -1 -17  130.39    4.71
 -27   1  17  144.52    4.87
  27   1 -17  139.19    5.05
 -27   1  17  138.90    4.20
  25  -1 -17    3.98    0.97
 -25  -1  17    2.75    1.26
 -25   1  17    1.34    0.73
 -25   1  17    1.48    0.92
  25   1 -17    2.98    1.04
  23  -1 -17  145.71    4.60
 -23  -1  17  154.84    5.37
 -23   1  17  140.14    4.78
  23   1 -17  141.22    4.89
 -21  -1  17   27.88    2.45
  21  -1 -17   31.42    1.73
 -21   1  17   25.24    1.97
  21   1 -17   26.94    1.92
 -19  -1  17  159.12    5.58
  19  -1 -17  166.30    5.44
  19  -1 -17  153.39    4.53
  19   1 -17  159.68    4.99
 -19   1  17  152.59    4.55
 -19   1  17  160.12    5.19
 -17  -1  17   53.72    3.02
 -17  -1  17   52.81    2.65
  17  -1 -17   51.41    2.03
 -17   1  17   48.61    2.00
 -17   1  17   53.73    2.74
  17   1 -17   54.84    2.47
 -15  -1  17   80.75    3.03
 -15  -1  17   84.33    3.79
  15   1 -17   74.97    3.01
 -15   1  17   80.11    3.45
 -15   1  17   80.01    2.59
 -13  -1  17   57.13    3.22
 -13  -1  17   55.36    2.41
 -13   1  17   53.67    2.91
 -13   1  17   56.77    2.01
 -13   1  17   59.48    2.86
 -11  -1  17  146.01    4.65
 -11  -1  17  148.28    5.56
 -11   1  17  149.93    4.12
 -11   1  17  146.82    5.22
 -11   1  17  153.79    5.35
  -9  -1  17   26.04    2.63
  -9   1  17   27.70    2.58
  -9   1  17   25.10    2.36
  -9   1  17   27.06    1.40
  -7  -1  17  101.11    4.67
  -7   1  17  105.72    3.28
  -7   1  17   96.86    4.41
  -7   1  17  108.20    4.49
  -5  -1  17   24.25    2.74
  -5  -1  17   18.11    2.29
  -5   1  17   20.01    1.48
  -5   1  17   19.51    2.40
  -5   1  17   24.17    2.50
  -3  -1  17    2.13    1.46
  -3  -1  17   -0.59    1.28
  -3   1  17    0.69    1.29
  -3   1  17    1.30    1.23
  -3   1  17    0.66    0.71
  -1  -1  17    5.63    1.91
  -1  -1  17    1.67    1.63
  -1   1  17    1.91    1.53
   1  -1  17    0.23    1.54
   1  -1  17   -0.13    1.35
   1   1  17   -0.38    1.45
   3  -1  17   69.44    4.41
   3  -1  17   72.91    4.66
   3   1  17   69.44    4.40
   5  -1  17   -0.53    1.54
   5   1  17   -3.87    1.37
   7  -1  17   34.25    3.68
   7   1  17   34.73    3.70
   9  -1  17    6.93    2.48
   9   1  17    2.79    1.83
  11  -1  17    0.72    1.92
  11   1  17    3.22    2.04
  44  -2 -17   -0.22    1.60
  44   2 -17   -0.71    1.72
  42  -2 -17    0.47    1.57
  42   2 -17   -0.47    1.62
  40  -2 -17    7.88    2.01
  40   2 -17    5.83    1.93
  38  -2 -17   -2.47    1.09
 -38  -2  17    4.81    1.87
  38   2 -17    1.99    1.61
 -38   2  17    0.10    1.27
 -36  -2  17    9.30    2.06
  36  -2 -17    9.56    1.82
  36   2 -17    6.37    1.85
 -36   2  17    9.10    1.72
  34  -2 -17    3.24    1.33
 -34  -2  17    0.00    1.51
  34   2 -17    2.98    1.42
 -34   2  17   -0.15    1.07
 -32  -2  17    2.21    1.54
  32  -2 -17   -0.22    0.92
  32   2 -17    1.84    1.27
 -32   2  17    2.58    1.10
 -30  -2  17    5.74    1.66
  30  -2 -17    5.29    1.29
 -30   2  17    7.78    0.98
 -30   2  17    7.65    1.27
  30   2 -17    9.68    1.69
  28  -2 -17    4.16    1.09
 -28  -2  17    5.61    1.58
 -28   2  17    3.13    1.05
 -28   2  17    3.97    0.70
  28   2 -17    4.97    1.28
 -26  -2  17    5.43    1.52
  26  -2 -17    5.16    1.03
 -26   2  17    6.17    0.80
 -26   2  17    5.77    1.07
  26   2 -17    4.32    1.22
 -24  -2  17   -0.38    1.08
  24  -2 -17    1.35    0.75
  24   2 -17   -0.35    0.89
 -24   2  17    0.58    0.79
  22  -2 -17    4.56    0.84
 -22  -2  17    5.27    1.50
  22   2 -17    5.08    1.13
 -22   2  17    4.58    1.00
  20  -2 -17   19.41    1.43
  20  -2 -17   19.89    1.28
 -20  -2  17   24.96    2.39
  20   2 -17   19.49    1.80
 -20   2  17   21.07    1.72
 -18  -2  17    1.63    1.19
  18  -2 -17    4.54    0.92
  18  -2 -17    2.93    0.56
 -18   2  17    3.58    0.95
 -18   2  17    4.63    0.95
  18   2 -17    5.48    1.14
 -16  -2  17   21.04    2.33
  16  -2 -17   20.30    1.75
 -16   2  17   16.68    1.59
 -16   2  17   19.65    1.81
  16   2 -17   16.94    1.68
 -14  -2  17   11.39    1.80
 -14   2  17   13.34    1.63
 -14   2  17   13.24    1.48
 -12  -2  17   17.44    2.21
 -12   2  17   15.76    0.71
 -12   2  17   17.98    1.87
 -12   2  17   15.07    1.71
 -10  -2  17    4.75    1.45
 -10   2  17    4.90    1.25
 -10   2  17    7.20    0.55
 -10   2  17    5.26    1.31
  -8  -2  17    1.24    1.30
  -8   2  17    2.43    0.47
  -8   2  17    0.99    1.05
  -8   2  17    2.39    1.15
  -6  -2  17    2.22    1.44
  -6   2  17    2.86    1.29
  -6   2  17    2.34    0.57
  -6   2  17    1.46    1.12
  -4  -2  17   19.53    2.52
  -4  -2  17   20.49    2.60
  -4   2  17   19.86    1.34
  -4   2  17   15.53    2.11
  -2  -2  17    2.68    1.67
  -2  -2  17    2.85    1.59
  -2   2  17    4.27    1.59
   0  -2  17    0.26    1.46
   0  -2  17    0.61    1.45
   0   2  17    0.59    1.29
   2  -2  17   11.44    2.32
   2  -2  17   10.34    2.37
   2   2  17    9.51    2.16
   4  -2  17   -2.21    1.53
   4  -2  17   -0.06    1.58
   4   2  17   -2.21    1.40
   6  -2  17    2.73    1.86
   6   2  17    0.11    1.54
   8  -2  17   -2.34    1.58
   8   2  17    0.50    1.62
  10  -2  17    2.55    2.03
  10   2  17    3.34    2.09
  43  -3 -17    2.54    1.87
  43   3 -17    6.28    2.19
  41  -3 -17   56.27    4.06
  41   3 -17   61.68    4.44
  39  -3 -17    1.07    1.46
 -39  -3  17    0.00    1.80
  39   3 -17    2.71    1.67
  37  -3 -17   23.53    2.59
 -37  -3  17   21.23    2.98
  37   3 -17   27.64    3.17
 -37   3  17   28.03    2.40
 -35  -3  17    7.79    2.10
  35  -3 -17    6.47    1.59
  35   3 -17    7.23    1.97
 -35   3  17    7.83    1.46
  33  -3 -17   74.78    3.70
 -33  -3  17   71.29    4.32
 -33   3  17   70.62    3.11
  33   3 -17   67.23    4.04
 -31  -3  17   32.72    3.16
  31  -3 -17   35.54    2.51
 -31   3  17   37.04    2.15
  31   3 -17   38.81    3.18
  29  -3 -17   61.91    3.03
 -29  -3  17   67.64    4.02
  29   3 -17   62.61    3.53
 -29   3  17   60.62    2.58
 -27  -3  17   52.32    3.44
  27  -3 -17   47.21    2.49
 -27   3  17   47.36    2.24
  27   3 -17   52.10    3.12
  25  -3 -17    0.37    0.63
 -25  -3  17   -0.73    1.21
 -25   3  17    0.04    0.33
  25   3 -17   -0.10    0.97
 -25   3  17   -0.37    0.34
 -25   3  17    0.66    0.67
  23  -3 -17   57.72    2.33
 -23  -3  17   51.85    3.42
 -23   3  17   58.41    2.31
  23   3 -17   56.10    3.07
 -23   3  17   57.72    1.92
  21  -3 -17   -0.07    0.46
 -21  -3  17    0.52    1.21
  21   3 -17    0.32    0.92
 -21   3  17    0.96    0.59
 -21   3  17    1.47    0.75
  19  -3 -17  136.11    3.67
 -19  -3  17  139.21    5.48
  19  -3 -17  143.09    4.18
 -19   3  17  136.47    4.10
 -19   3  17  134.24    4.23
  19   3 -17  132.89    4.93
 -17  -3  17   16.90    2.18
  17  -3 -17   24.57    1.54
 -17   3  17   24.48    1.68
 -17   3  17   22.73    1.58
  17   3 -17   25.75    2.16
  15  -3 -17   64.41    2.64
 -15  -3  17   55.55    3.55
 -15   3  17   67.66    2.79
 -15   3  17   63.99    2.75
  15   3 -17   61.85    3.05
 -13  -3  17   22.79    2.42
  13  -3 -17   24.92    1.92
 -13   3  17   23.78    2.00
 -13   3  17   25.47    2.05
 -11  -3  17   49.11    3.44
 -11   3  17   50.30    2.69
 -11   3  17   46.23    2.64
  -9  -3  17   56.29    3.54
  -9   3  17   51.37    2.87
  -7  -3  17   19.40    2.52
  -7   3  17   20.85    2.15
  -5  -3  17  140.95    6.14
  -5   3  17  149.24    3.75
  -5   3  17  148.68    3.76
  -5   3  17  138.03    5.50
  -3  -3  17    7.67    2.13
  -3   3  17    7.69    0.87
  -3   3  17    4.39    1.41
  -1  -3  17   74.71    4.57
  -1  -3  17   89.03    4.90
  -1   3  17   75.46    4.15
  -1   3  17   74.22    2.79
   1  -3  17    2.10    1.71
   1  -3  17    8.81    2.20
   1   3  17    5.58    1.72
   1   3  17    5.89    1.08
   3  -3  17   52.76    4.63
   3  -3  17   55.10    4.12
   3   3  17   57.20    4.01
   5  -3  17   13.32    2.68
   5  -3  17    9.59    2.45
   5   3  17   16.19    2.68
   7  -3  17   63.17    5.16
   7   3  17   62.06    4.40
   9  -3  17   32.88    3.92
   9   3  17   35.51    4.02
 -42  -4  17    2.06    2.16
  42  -4 -17    0.93    1.72
  42   4 -17    0.19    1.74
 -40  -4  17   -0.87    1.85
  40  -4 -17   -0.37    1.47
  40   4 -17   -0.68    1.60
  38  -4 -17    5.50    1.68
 -38  -4  17    2.89    2.19
  38   4 -17    2.70    1.64
 -36  -4  17   10.99    2.48
  36  -4 -17   11.96    2.05
  36   4 -17   11.29    2.19
 -34  -4  17    3.07    1.92
  34  -4 -17    2.61    1.24
  34   4 -17    2.08    1.52
 -32  -4  17   -2.03    1.36
  32  -4 -17    1.00    1.06
 -32   4  17   -0.26    0.75
  32   4 -17    1.18    1.38
  30  -4 -17    8.00    1.39
 -30  -4  17    9.28    2.10
 -30   4  17    6.78    0.93
  30   4 -17    8.34    1.80
 -28  -4  17    1.19    1.55
  28  -4 -17    0.82    0.87
 -28   4  17    0.28    0.57
  28   4 -17    0.39    1.07
  26  -4 -17   12.84    1.41
 -26  -4  17   11.89    2.13
 -26   4  17   11.79    0.94
  26   4 -17   11.74    1.86
 -24  -4  17    7.00    1.76
  24  -4 -17    6.14    0.93
 -24   4  17    7.79    0.83
  24   4 -17    6.20    1.46
 -22  -4  17    8.79    1.86
  22  -4 -17   10.17    0.99
 -22   4  17    8.86    0.62
  22   4 -17    8.00    1.60
 -22   4  17   10.17    0.90
  20  -4 -17    0.67    0.42
 -20  -4  17    0.76    1.35
 -20   4  17    2.01    0.55
 -20   4  17    1.10    0.60
  20   4 -17    0.42    1.01
 -18  -4  17   -0.09    1.25
  18  -4 -17    0.31    0.50
  18   4 -17    2.16    1.10
 -18   4  17    0.31    0.57
 -18   4  17   -0.03    0.56
 -16  -4  17   16.52    2.37
  16  -4 -17   16.72    1.39
  16   4 -17   14.15    1.75
 -16   4  17   14.51    1.38
  14  -4 -17    9.52    1.15
 -14  -4  17    5.42    1.83
 -14   4  17    6.10    1.09
 -12  -4  17   30.65    2.96
  12  -4 -17   37.00    2.28
 -12   4  17   37.31    2.21
 -10  -4  17    4.33    1.59
 -10   4  17    7.50    1.40
  -8  -4  17   -0.02    1.46
  -8   4  17   -0.78    0.95
  -6  -4  17    2.30    1.66
  -6   4  17    3.09    1.26
  -4  -4  17    0.63    1.67
  -4   4  17    1.13    1.09
  -2  -4  17    0.21    1.71
  -2   4  17    2.71    1.49
   0  -4  17    8.04    2.23
   0  -4  17    3.69    1.86
   0   4  17    7.87    1.83
   2  -4  17   18.86    2.92
   2  -4  17   13.52    2.57
   2   4  17   19.55    2.71
   4  -4  17    2.64    2.24
   4  -4  17   -0.15    1.82
   4   4  17    0.37    1.53
   6  -4  17    1.15    2.13
   6  -4  17   -0.24    1.84
   6   4  17    1.19    1.80
   8  -4  17    5.46    2.35
   8  -4  17    5.69    2.39
   8   4  17    4.00    2.07
  41  -5 -17   43.80    3.90
 -41  -5  17   53.08    5.04
  41   5 -17   61.86    5.06
 -39  -5  17    0.04    2.02
  39  -5 -17   -2.56    1.25
  39   5 -17   -1.59    1.51
 -37  -5  17   31.16    3.65
  37  -5 -17   31.30    2.97
  37   5 -17   42.74    3.94
 -35  -5  17    7.68    2.49
  35  -5 -17   14.12    2.05
  35   5 -17   13.28    2.36
  33  -5 -17   25.48    2.47
 -33  -5  17   23.17    3.04
  33   5 -17   24.90    2.85
  31  -5 -17   40.34    2.68
 -31  -5  17   34.20    3.44
  31   5 -17   35.72    3.23
  29  -5 -17   40.48    2.53
 -29  -5  17   33.35    3.35
  29   5 -17   45.38    3.36
  27  -5 -17   26.53    1.95
 -27  -5  17   26.74    3.12
  27   5 -17   26.59    2.78
 -25  -5  17    1.03    1.67
  25  -5 -17    1.45    0.76
  25   5 -17    0.01    1.09
  23  -5 -17   53.32    2.15
 -23  -5  17   45.66    3.62
  23   5 -17   58.09    3.43
 -21  -5  17   29.28    2.96
  21  -5 -17   34.17    1.44
  21   5 -17   30.67    2.87
 -19  -5  17  131.77    5.73
 -19   5  17  132.62    3.72
  19   5 -17  132.41    5.29
 -17  -5  17    8.49    2.05
  17  -5 -17    7.00    0.79
  17   5 -17    7.59    1.58
 -17   5  17    5.78    0.90
  15  -5 -17   63.74    2.44
 -15  -5  17   63.16    3.98
 -15   5  17   66.03    2.69
  15   5 -17   57.12    3.37
  13  -5 -17    6.28    1.07
 -13  -5  17    2.54    1.67
 -13   5  17    5.83    1.14
 -11  -5  17   -1.42    1.41
 -11   5  17    0.86    0.93
  -9  -5  17   42.81    3.72
  -9   5  17   36.39    2.57
  -7  -5  17    4.60    1.85
  -7   5  17    2.52    1.26
  -5  -5  17   75.28    4.57
  -5   5  17   68.42    3.74
  -3  -5  17   11.32    2.37
  -3   5  17   16.34    2.36
  -1  -5  17   49.05    4.41
  -1   5  17   39.21    3.38
   1  -5  17    2.52    1.91
   1   5  17    3.86    1.61
   3  -5  17   29.66    3.63
   3  -5  17   33.31    3.87
   3   5  17   34.85    3.54
   5  -5  17    5.11    2.45
   5  -5  17    5.93    2.46
   5   5  17    3.50    1.77
   7  -5  17   38.57    4.28
   7  -5  17   32.96    4.10
   7   5  17   33.99    3.83
 -40  -6  17    0.75    2.31
  40  -6 -17    1.64    1.68
  40   6 -17    0.27    1.89
  38  -6 -17    0.15    1.48
 -38  -6  17   -1.37    2.12
  38   6 -17   -0.16    1.62
  36  -6 -17   -0.49    1.22
 -36  -6  17   -0.63    1.95
  36   6 -17    0.60    1.67
  34  -6 -17    4.69    1.54
 -34  -6  17    4.47    2.18
  34   6 -17    5.55    1.86
  32  -6 -17    2.04    1.23
 -32  -6  17    1.50    1.92
  32   6 -17    4.01    1.89
  30  -6 -17    2.88    1.12
 -30  -6  17    3.19    1.98
  30   6 -17    1.34    1.63
 -28  -6  17    7.26    2.25
  28  -6 -17   11.84    1.50
  28   6 -17   14.50    2.36
  26  -6 -17   15.56    1.54
 -26  -6  17   15.86    2.71
  26   6 -17   16.41    2.33
  24  -6 -17   10.42    1.20
 -24  -6  17    8.85    2.22
  24   6 -17   10.64    1.98
  22  -6 -17    0.04    0.50
 -22  -6  17   -0.37    1.47
  22   6 -17   -1.97    0.98
  20  -6 -17   16.37    1.01
 -20  -6  17   21.55    2.87
  20   6 -17   14.29    2.12
 -18  -6  17    2.09    1.64
  18   6 -17    0.01    1.24
 -18   6  17    1.75    0.66
 -16  -6  17   11.56    2.24
 -16   6  17    9.60    1.16
  16   6 -17    9.61    1.83
 -14  -6  17    2.47    1.71
 -14   6  17   -1.16    0.71
 -12  -6  17    1.62    1.64
 -12   6  17    2.21    1.01
 -10  -6  17   12.39    2.37
 -10   6  17   10.26    1.57
  -8  -6  17   -0.42    1.55
  -8   6  17   -1.06    0.90
  -6  -6  17    0.37    1.71
  -6   6  17    1.52    1.23
  -4  -6  17    8.36    2.30
  -4   6  17    6.42    1.69
  -2  -6  17    1.35    1.82
  -2   6  17    1.87    1.43
   0  -6  17   10.17    2.58
   0   6  17    6.01    1.88
   2  -6  17   -0.38    1.89
   2   6  17    1.32    1.53
   4  -6  17   -0.77    1.86
   4  -6  17   -3.40    1.88
   4   6  17    0.29    1.63
   6  -6  17    0.32    2.05
   6  -6  17    0.22    1.99
   6   6  17    1.61    1.59
  39  -7 -17   -0.46    1.54
 -39  -7  17    2.53    2.42
  39   7 -17    2.33    2.14
  37  -7 -17   30.16    3.02
 -37  -7  17   32.89    3.98
  37   7 -17   38.66    4.15
 -35  -7  17   14.53    3.12
  35   7 -17   18.00    2.91
 -33  -7  17   17.20    3.09
  33   7 -17   11.61    2.40
 -31  -7  17   21.12    3.15
  31   7 -17   24.59    3.16
 -29  -7  17   21.51    3.06
  29   7 -17   24.71    2.93
 -27  -7  17   43.67    3.97
  27   7 -17   40.49    3.58
  25  -7 -17    7.75    1.17
 -25  -7  17    9.75    2.39
  25   7 -17    5.46    1.89
 -23  -7  17   54.37    4.19
  23   7 -17   46.98    3.47
 -21  -7  17    0.99    1.72
  21   7 -17   -1.82    1.10
 -19  -7  17   28.74    3.34
  19   7 -17   36.67    3.36
 -17  -7  17    1.80    1.74
  17   7 -17    1.70    1.39
 -17   7  17    0.28    0.69
 -15  -7  17   84.22    4.98
 -15   7  17   79.77    3.15
 -13  -7  17   12.79    2.57
 -13   7  17   12.05    1.54
 -11  -7  17   88.65    5.13
 -11   7  17   79.75    3.65
  -9  -7  17   35.09    3.78
  -9   7  17   33.24    2.69
  -7  -7  17   15.15    2.67
  -7   7  17   15.23    2.06
  -5  -7  17   28.99    3.42
  -5   7  17   33.73    3.04
  -3  -7  17    5.61    2.29
  -3   7  17   13.14    2.21
  -1  -7  17   63.97    4.93
  -1   7  17   61.82    4.07
   1  -7  17    3.81    2.12
   1   7  17    2.05    1.74
   3  -7  17   12.25    2.88
   3   7  17   14.24    2.81
   5  -7  17    2.25    2.51
   5  -7  17    3.74    2.24
   5   7  17    5.54    2.28
 -36  -8  17    3.65    2.61
  36   8 -17    2.83    2.00
 -34  -8  17    6.57    2.71
  34   8 -17    9.20    2.59
 -32  -8  17    0.99    2.11
  32   8 -17   -0.01    1.69
 -30  -8  17    7.54    2.46
  30   8 -17    9.28    2.42
 -28  -8  17   -0.56    1.81
  28   8 -17    0.78    1.52
 -26  -8  17    4.50    2.10
  26   8 -17    2.79    1.69
 -24  -8  17   -0.04    1.70
  24   8 -17    0.14    1.66
 -22  -8  17   -0.03    1.77
  22   8 -17    1.53    1.71
 -20  -8  17    7.62    2.27
  20   8 -17    4.97    1.83
 -18  -8  17    5.93    2.11
  18   8 -17    5.09    1.85
 -16  -8  17    2.72    1.83
 -14  -8  17   19.43    2.96
 -14   8  17   24.52    1.98
 -12  -8  17    4.91    2.23
 -12   8  17    6.30    1.36
 -10  -8  17   -2.52    1.53
 -10   8  17    3.04    1.29
  -8  -8  17    0.69    1.77
  -8   8  17    2.74    1.39
  -6  -8  17    1.83    1.99
  -6   8  17   -0.75    1.26
  -4  -8  17   13.24    2.76
  -4   8  17   10.39    2.07
  -2  -8  17    0.10    1.91
  -2   8  17    1.40    1.52
   0  -8  17   -2.81    1.86
   0   8  17   -0.62    1.55
   2  -8  17   -0.25    2.13
   2   8  17    0.30    1.66
 -33  -9  17    6.52    2.58
  33   9 -17    4.53    2.12
 -31  -9  17   12.04    2.97
  31   9 -17    8.66    2.50
 -29  -9  17    2.28    2.21
  29   9 -17   -1.87    1.71
 -27  -9  17   39.07    4.15
  27   9 -17   48.98    4.38
 -25  -9  17   10.14    2.57
  25   9 -17   10.56    2.64
 -23  -9  17   65.41    4.90
  23   9 -17   67.87    4.51
 -21  -9  17    0.15    1.85
  21   9 -17    1.00    1.64
 -19  -9  17    3.77    2.14
  19   9 -17    4.96    1.88
 -17  -9  17    1.87    2.04
 -15  -9  17   25.58    3.47
 -13  -9  17   18.38    3.09
 -11  -9  17   30.92    3.81
 -11   9  17   31.24    2.62
  -9  -9  17    5.98    2.31
  -9   9  17    9.10    1.80
  -7  -9  17   18.61    3.09
  -7   9  17   17.28    2.29
  -5  -9  17    1.72    2.13
  -5   9  17   -0.71    1.49
  -3  -9  17    5.50    2.43
  -3   9  17    1.91    1.74
  -1  -9  17   46.94    4.77
  -1   9  17   34.35    3.50
 -30 -10  17   10.60    2.98
  30  10 -17   16.07    3.10
 -28 -10  17    2.00    2.31
  28  10 -17    2.47    2.22
 -26 -10  17    4.36    2.48
  26  10 -17    2.58    2.10
 -24 -10  17    5.60    2.36
  24  10 -17    0.27    1.69
 -22 -10  17    6.47    2.48
  22  10 -17    4.20    2.19
 -20 -10  17   -0.16    1.92
  20  10 -17   -1.92    1.80
 -18 -10  17    6.97    2.45
 -16 -10  17    1.64    2.18
 -14 -10  17   -0.14    1.90
 -12 -10  17   -0.37    1.95
 -10 -10  17   13.93    3.02
  -8 -10  17    4.32    2.35
  -6 -10  17   -1.28    1.84
  -6  10  17    1.21    1.65
  -4 -10  17    0.79    2.14
  -4  10  17    4.29    1.80
 -23 -11  17   45.06    4.71
  23  11 -17   46.62    4.69
 -21 -11  17   -0.57    2.05
  21  11 -17    0.49    2.05
 -19 -11  17   30.90    4.11
 -17 -11  17   -4.36    1.82
 -15 -11  17   43.33    4.64
 -13 -11  17   20.78    3.45
 -11 -11  17   36.39    4.23
  44   0 -18   22.95    3.10
 -42   0  18   31.00    3.20
  42   0 -18   35.36    3.56
 -40   0  18   20.34    2.66
  40   0 -18   23.53    2.89
  38   0 -18   17.75    2.52
 -38   0  18   21.38    2.59
 -36   0  18   44.02    3.33
  36   0 -18   42.47    3.17
 -34   0  18   45.11    3.14
  34   0 -18   42.73    2.98
  32   0 -18   17.70    2.11
 -32   0  18   19.94    2.19
  30   0 -18   93.13    3.96
 -30   0  18   87.91    3.99
 -28   0  18   10.18    1.68
  28   0 -18   15.96    1.79
 -26   0  18   63.68    3.22
  26   0 -18   63.52    2.98
  24   0 -18   54.29    2.66
 -24   0  18   58.32    3.06
 -22   0  18  213.01    6.65
  22   0 -18  206.65    6.11
  20   0 -18   11.42    1.21
 -20   0  18   11.21    1.69
 -20   0  18   10.26    1.18
 -18   0  18  141.76    5.08
 -18   0  18  134.54    4.25
  18   0 -18  139.05    4.30
 -16   0  18  130.88    4.05
 -16   0  18  133.63    4.98
  16   0 -18  130.85    4.06
 -14   0  18    2.21    0.71
 -14   0  18    2.18    1.20
 -12   0  18   96.23    4.23
 -12   0  18   90.65    3.13
 -10   0  18   93.05    3.18
 -10   0  18   88.79    4.19
 -10   0  18   87.49    4.03
  -8   0  18   71.40    3.84
  -8   0  18   65.36    3.63
  -8   0  18   67.11    2.73
  -6   0  18   14.06    2.11
  -6   0  18   11.27    2.01
  -4   0  18   -1.24    1.29
  -4   0  18    1.22    1.45
  -2   0  18   33.91    3.32
  -2   0  18   32.18    3.23
   0   0  18   28.70    3.31
   0   0  18   21.84    2.82
   2   0  18    1.35    1.63
   4   0  18   50.08    4.43
   6   0  18    4.08    2.17
   8   0  18    2.12    2.05
  10   0  18    0.30    1.77
  45  -1 -18   -0.52    1.59
  45   1 -18   -0.69    1.63
  43  -1 -18   -1.63    1.48
  43   1 -18    0.28    1.72
  41  -1 -18    2.76    1.61
 -41  -1  18    3.20    1.90
 -41   1  18    2.29    1.69
  41   1 -18    2.88    1.77
 -39  -1  18   -1.63    1.52
  39  -1 -18    0.44    1.29
  39   1 -18    2.13    1.49
 -39   1  18    1.97    1.53
  37  -1 -18    6.30    1.73
 -37  -1  18    4.19    1.90
 -37   1  18    8.87    1.84
  37   1 -18    8.82    1.97
  35  -1 -18    1.93    1.19
 -35  -1  18   -0.15    1.41
  35   1 -18    2.48    1.34
 -35   1  18    1.52    1.31
 -33  -1  18    1.12    1.35
  33  -1 -18    1.12    1.12
  33   1 -18   -0.10    1.05
 -33   1  18    0.22    1.14
  31  -1 -18   12.25    1.68
 -31  -1  18   12.67    1.94
 -31   1  18   13.33    1.72
  31   1 -18   12.93    1.82
  29  -1 -18   -0.32    0.78
 -29  -1  18   -0.81    1.14
 -29   1  18   -0.67    0.61
  29   1 -18   -0.84    0.83
 -29   1  18   -0.96    0.94
  27  -1 -18   -0.25    0.76
 -27  -1  18   -0.01    1.02
 -27   1  18   -0.24    0.93
  27   1 -18    0.79    0.87
 -27   1  18    0.32    0.66
 -25  -1  18    9.25    1.64
  25  -1 -18   13.28    1.45
  25   1 -18    9.51    1.41
 -25   1  18   12.19    1.51
  23  -1 -18   26.52    1.75
 -23  -1  18   22.09    2.22
 -23   1  18   25.02    2.12
  23   1 -18   27.54    2.00
  21  -1 -18   18.28    1.37
 -21  -1  18   19.38    2.20
 -21   1  18   18.25    1.81
  21   1 -18   19.87    1.76
 -19  -1  18   93.38    4.08
  19  -1 -18   89.00    2.98
 -19   1  18   87.29    3.63
  19   1 -18   82.28    3.33
 -19   1  18   92.35    3.03
  17  -1 -18   12.75    1.07
 -17  -1  18    9.72    1.68
 -17   1  18   11.50    1.04
 -17   1  18   11.95    1.59
  17   1 -18   12.29    1.35
 -15  -1  18    0.83    1.22
 -15   1  18    0.16    0.48
 -15   1  18   -1.37    0.77
 -13  -1  18   23.09    2.39
 -13   1  18   24.52    1.32
 -13   1  18   25.44    2.35
 -13   1  18   21.15    2.12
 -11  -1  18    0.24    1.22
 -11   1  18    1.50    1.26
 -11   1  18   -0.30    0.44
 -11   1  18   -0.20    0.99
  -9  -1  18    2.12    1.44
  -9   1  18    0.26    0.56
  -9   1  18    0.16    1.07
  -9   1  18    0.63    1.07
  -7  -1  18    7.78    2.12
  -7  -1  18    7.69    1.95
  -7   1  18    6.89    0.95
  -7   1  18    5.63    1.64
  -7   1  18    6.00    1.70
  -5  -1  18    1.78    1.55
  -5  -1  18    1.67    1.42
  -5   1  18    1.21    1.34
  -5   1  18   -0.39    1.22
  -5   1  18    0.47    1.12
  -3  -1  18   18.18    2.65
  -3  -1  18   14.79    2.51
  -3   1  18   16.81    2.49
  -3   1  18   14.53    2.25
  -1  -1  18    0.83    1.64
  -1  -1  18    0.49    1.54
  -1   1  18    1.22    1.61
   1  -1  18    1.51    1.73
   1  -1  18   -0.44    1.55
   1   1  18   -0.42    1.47
   3  -1  18   -0.18    1.73
   3   1  18   -0.91    1.63
   5  -1  18    4.23    2.11
   5   1  18    2.94    1.95
   7  -1  18    6.77    2.21
   7   1  18    5.28    2.03
   9  -1  18    1.43    2.04
   9   1  18   -0.78    1.78
 -44  -2  18   43.38    4.24
  44  -2 -18   38.09    3.68
  44   2 -18   42.46    4.24
  42  -2 -18   10.72    2.30
 -42  -2  18   15.39    2.82
  42   2 -18   13.59    2.71
 -42   2  18   13.41    2.70
  40  -2 -18   10.06    2.10
 -40  -2  18   12.88    2.62
  40   2 -18   15.10    2.54
 -40   2  18   11.78    2.08
  38  -2 -18    7.31    1.72
 -38  -2  18    5.20    2.02
 -38   2  18    4.75    1.63
  38   2 -18    5.11    1.80
  36  -2 -18   18.98    2.35
 -36  -2  18   20.61    2.81
 -36   2  18   15.09    2.03
  36   2 -18   17.98    2.52
  34  -2 -18    8.24    1.61
 -34  -2  18   10.60    2.17
  34   2 -18   10.79    1.95
 -34   2  18   10.74    1.61
  32  -2 -18   12.89    1.79
 -32  -2  18   11.72    2.09
  32   2 -18    9.65    1.78
 -32   2  18   10.49    1.50
  30  -2 -18  143.48    5.09
 -30  -2  18  144.30    5.79
  30   2 -18  151.24    5.60
 -30   2  18  143.64    4.86
  28  -2 -18   -1.00    0.72
 -28  -2  18   -0.81    1.25
 -28   2  18    0.18    0.53
  28   2 -18    0.21    0.99
 -28   2  18   -0.24    0.86
 -26  -2  18  107.55    4.68
  26  -2 -18  106.68    3.80
  26   2 -18   99.44    4.25
 -26   2  18  107.86    3.83
 -26   2  18  106.72    3.28
  24  -2 -18   46.17    2.21
 -24  -2  18   50.16    3.17
  24   2 -18   49.81    2.78
 -24   2  18   49.48    2.43
  22  -2 -18  186.54    5.29
 -22  -2  18  194.18    6.61
  22   2 -18  191.85    6.11
 -22   2  18  187.75    5.72
  20  -2 -18   54.97    2.05
 -20  -2  18   56.66    3.31
  20  -2 -18   52.61    2.43
 -20   2  18   56.39    2.48
 -20   2  18   53.89    2.63
  20   2 -18   49.56    2.71
  18  -2 -18   29.19    1.81
  18  -2 -18   27.41    1.26
 -18  -2  18   29.25    2.73
  18   2 -18   27.70    1.95
 -18   2  18   27.12    2.03
 -18   2  18   27.89    1.91
 -16  -2  18   82.24    4.12
 -16   2  18   82.57    3.52
 -16   2  18   92.72    3.55
  16   2 -18   87.98    3.46
 -14  -2  18   35.33    3.00
 -14   2  18   33.99    2.35
 -14   2  18   31.73    2.35
 -12  -2  18   60.37    3.63
 -12   2  18   58.79    3.11
 -12   2  18   57.53    1.66
 -12   2  18   58.83    3.02
 -10  -2  18   53.91    3.45
 -10   2  18   47.94    1.53
 -10   2  18   43.63    2.87
 -10   2  18   44.02    2.81
  -8  -2  18   74.16    4.25
  -8   2  18   65.53    3.63
  -8   2  18   63.00    3.54
  -8   2  18   70.56    2.17
  -6  -2  18    0.14    1.31
  -6   2  18    1.55    1.25
  -6   2  18    0.97    1.26
  -4  -2  18   55.21    3.88
  -4  -2  18   37.06    3.47
  -4   2  18   42.02    3.19
  -2  -2  18    1.39    1.67
  -2  -2  18    1.01    1.78
  -2   2  18    0.73    1.29
   0  -2  18   59.06    4.25
   0  -2  18   54.80    4.32
   0   2  18   63.93    4.07
   2  -2  18    5.22    2.21
   2  -2  18    5.42    2.03
   2   2  18    7.27    2.08
   4  -2  18   59.60    4.65
   4  -2  18   55.26    4.67
   4   2  18   64.79    4.29
   6  -2  18   36.50    4.10
   6   2  18   34.65    3.74
   8  -2  18    2.67    2.31
   8   2  18    2.25    2.05
  43  -3 -18    4.36    1.91
 -43  -3  18    0.51    2.07
  43   3 -18    3.79    2.10
 -41  -3  18   -0.64    1.99
  41  -3 -18    0.20    1.37
  41   3 -18    0.09    1.63
  39  -3 -18    0.54    1.36
 -39  -3  18    0.58    1.85
  39   3 -18    0.01    1.34
 -37  -3  18   21.70    3.10
  37  -3 -18   17.14    2.29
  37   3 -18   20.63    2.74
 -37   3  18   18.68    2.03
 -35  -3  18    9.92    2.23
  35  -3 -18   14.87    2.07
  35   3 -18   13.42    2.35
 -35   3  18   14.13    1.67
 -33  -3  18    3.89    1.77
  33  -3 -18    2.20    1.18
  33   3 -18    3.91    1.46
 -33   3  18    3.53    1.09
  31  -3 -18   33.05    2.39
 -31  -3  18   37.22    3.37
 -31   3  18   34.46    2.06
  31   3 -18   29.71    2.87
 -29  -3  18    1.09    1.37
  29  -3 -18    0.49    0.79
  29   3 -18    1.46    1.19
 -29   3  18    1.28    0.79
 -27  -3  18   -1.58    1.22
  27  -3 -18    1.27    0.78
  27   3 -18    0.47    1.05
 -27   3  18   -0.11    0.31
 -27   3  18    0.60    0.37
 -27   3  18   -0.20    0.70
  25  -3 -18   35.77    1.91
 -25  -3  18   35.87    3.16
 -25   3  18   34.46    1.45
  25   3 -18   36.51    2.58
 -25   3  18   30.74    1.92
 -25   3  18   33.98    1.39
  23  -3 -18    0.12    0.55
 -23  -3  18    0.15    1.27
  23   3 -18   -0.26    0.94
 -23   3  18    0.91    0.56
 -23   3  18    0.28    0.69
  21  -3 -18    1.30    0.52
 -21  -3  18    3.01    1.53
 -21   3  18    1.35    0.69
 -21   3  18    1.91    0.79
  21   3 -18    1.83    1.01
  19  -3 -18    3.73    0.50
 -19  -3  18    2.07    1.48
  19  -3 -18    2.94    0.80
 -19   3  18    3.44    0.94
  19   3 -18    4.59    1.24
 -19   3  18    2.26    0.78
 -17  -3  18   20.91    2.36
  17  -3 -18   22.07    1.58
  17   3 -18   17.51    1.82
 -17   3  18   19.68    1.68
 -17   3  18   21.44    1.79
 -15  -3  18    0.38    1.29
 -15   3  18    1.26    0.85
 -15   3  18    0.93    0.83
 -13  -3  18    9.88    1.99
 -13   3  18    7.62    1.34
 -13   3  18   11.64    1.57
 -11  -3  18    0.92    1.40
 -11   3  18    3.45    1.22
 -11   3  18    4.94    1.28
  -9  -3  18   -0.70    1.61
  -9   3  18    1.40    1.10
  -7  -3  18    3.09    1.60
  -7   3  18    8.13    1.67
  -5  -3  18    4.19    1.89
  -5   3  18    4.70    0.60
  -5   3  18    5.21    1.53
  -3  -3  18    1.22    1.67
  -3  -3  18   -1.08    1.49
  -3   3  18    0.26    0.96
  -3   3  18    0.64    1.29
  -1  -3  18   27.80    3.55
  -1  -3  18   29.08    3.39
  -1   3  18   26.17    2.82
   1  -3  18    4.90    2.16
   1  -3  18    4.25    2.08
   1   3  18    1.18    1.39
   3  -3  18   11.77    2.74
   3  -3  18   11.99    2.72
   3   3  18   10.08    2.37
   5  -3  18   10.54    2.54
   5  -3  18    6.65    2.19
   5   3  18    7.90    2.23
   7  -3  18   -0.57    2.09
   7   3  18    0.12    1.75
   9  -3  18    2.71    2.38
  42  -4 -18    2.95    1.76
 -42  -4  18    0.13    2.08
  42   4 -18    0.34    1.83
  40  -4 -18   36.16    3.40
 -40  -4  18   38.96    4.16
  40   4 -18   42.83    4.19
 -38  -4  18   16.14    2.89
  38  -4 -18   15.65    2.30
  38   4 -18   16.41    2.69
  36  -4 -18   21.22    2.39
 -36  -4  18   21.43    3.11
  36   4 -18   18.84    2.81
  34  -4 -18   59.04    3.29
 -34  -4  18   55.56    4.29
  34   4 -18   59.91    3.98
  32  -4 -18   12.07    1.73
 -32  -4  18   10.23    2.29
  32   4 -18   13.40    2.20
 -30  -4  18   52.17    3.83
  30  -4 -18   53.94    2.87
  30   4 -18   64.10    3.73
 -30   4  18   51.59    2.09
 -28  -4  18    6.10    1.89
  28  -4 -18    5.69    1.11
  28   4 -18    3.44    1.41
 -28   4  18    6.32    0.86
 -26  -4  18   57.72    3.82
  26  -4 -18   56.12    2.51
  26   4 -18   56.94    3.36
 -26   4  18   57.30    2.01
  24  -4 -18   11.95    1.15
 -24  -4  18   10.55    2.05
  24   4 -18   10.80    1.69
 -24   4  18   13.17    1.03
 -22  -4  18   43.74    3.54
  22  -4 -18   45.20    1.73
 -22   4  18   44.82    1.89
 -22   4  18   42.70    1.64
  22   4 -18   41.07    2.82
  20  -4 -18    2.94    0.41
 -20  -4  18    0.65    1.43
 -20   4  18    3.61    0.84
 -20   4  18    3.41    0.74
  20   4 -18    2.40    1.25
 -18  -4  18  190.67    6.89
  18  -4 -18  173.47    5.01
 -18   4  18  177.75    5.15
  18   4 -18  177.80    6.12
 -18   4  18  167.40    5.09
 -16  -4  18   30.09    3.11
  16  -4 -18   32.74    1.82
  16   4 -18   32.71    2.61
 -16   4  18   28.46    1.89
 -14  -4  18   41.56    3.60
  14  -4 -18   36.44    2.05
 -14   4  18   35.80    2.24
 -12  -4  18   26.44    3.06
 -12   4  18   28.96    2.29
 -10  -4  18    1.07    1.44
 -10   4  18   -0.24    0.93
  -8  -4  18  117.37    5.66
  -8   4  18  125.06    4.90
  -6  -4  18    6.58    2.07
  -6   4  18    9.80    1.82
  -4  -4  18   77.78    4.82
  -4   4  18   88.02    4.34
  -2  -4  18    7.42    2.40
  -2   4  18    6.26    1.84
   0  -4  18   27.31    3.60
   0  -4  18   27.98    3.42
   0   4  18   26.77    2.97
   2  -4  18   15.93    2.87
   2  -4  18   18.79    3.11
   2   4  18   15.20    2.50
   4  -4  18   15.12    3.06
   4  -4  18   18.78    3.08
   4   4  18   15.76    2.71
   6  -4  18   39.35    4.32
   6  -4  18   36.80    4.17
   6   4  18   29.62    3.61
   8  -4  18   13.52    2.91
   8   4  18    9.21    2.45
  41  -5 -18    0.92    1.49
 -41  -5  18    0.54    2.22
  41   5 -18   -0.13    1.70
 -39  -5  18   -1.70    1.96
  39  -5 -18   -1.74    1.25
  39   5 -18   -0.58    1.72
 -37  -5  18    2.46    2.04
  37  -5 -18    0.43    1.24
  37   5 -18    2.90    1.82
  35  -5 -18   13.00    1.90
 -35  -5  18   10.21    2.53
  35   5 -18    9.26    2.26
 -33  -5  18    7.90    2.36
  33  -5 -18    4.62    1.37
  33   5 -18    5.55    1.71
  31  -5 -18    4.42    1.24
 -31  -5  18    5.51    1.96
  31   5 -18    5.07    1.68
 -29  -5  18    1.64    1.62
  29  -5 -18    0.11    0.85
  29   5 -18    1.21    1.36
 -27  -5  18    0.18    1.54
  27  -5 -18    1.03    0.77
  27   5 -18   -1.33    1.19
  25  -5 -18    9.44    1.10
 -25  -5  18    7.69    2.02
  25   5 -18    7.62    1.67
  23  -5 -18    0.82    0.52
 -23  -5  18   -0.62    1.39
  23   5 -18    0.20    1.19
 -21  -5  18    0.93    1.58
  21  -5 -18    1.25    0.38
 -21   5  18    1.02    0.47
  21   5 -18   -0.69    1.06
 -19  -5  18    3.60    1.73
  19   5 -18    2.64    1.29
 -19   5  18    3.67    0.75
 -17  -5  18   22.06    2.86
 -17   5  18   17.89    1.50
  17   5 -18   17.30    2.07
 -15  -5  18   37.80    3.46
 -15   5  18   38.37    2.21
 -13  -5  18    0.83    1.50
 -13   5  18    1.52    0.96
 -11  -5  18    7.89    2.07
 -11   5  18   10.13    1.60
  -9  -5  18    1.31    1.56
  -9   5  18    3.34    1.22
  -7  -5  18    4.02    1.81
  -7   5  18    7.02    1.61
  -5  -5  18    0.94    1.68
  -5   5  18    1.11    1.36
  -3  -5  18    8.03    2.32
  -3   5  18   10.51    1.98
  -1  -5  18   -0.95    1.71
  -1   5  18   -1.33    1.35
   1  -5  18    2.18    2.19
   1  -5  18   -0.19    1.91
   1   5  18    1.19    1.59
   3  -5  18   -2.94    1.69
   3  -5  18    1.02    1.96
   3   5  18    1.45    1.67
   5  -5  18    3.04    2.25
   5  -5  18   -0.95    2.01
   5   5  18    0.20    1.76
   7  -5  18    2.41    2.21
   7  -5  18    4.13    2.28
   7   5  18    3.05    2.11
 -40  -6  18   26.40    3.84
  40  -6 -18   36.07    3.40
  40   6 -18   26.99    3.55
  38  -6 -18    9.80    2.08
 -38  -6  18   13.63    2.99
  38   6 -18   10.07    2.52
 -36  -6  18   10.43    2.70
  36  -6 -18   10.51    1.91
  36   6 -18    8.78    2.27
 -34  -6  18   47.32    4.37
  34  -6 -18   48.41    3.10
  34   6 -18   45.71    4.14
 -32  -6  18   14.14    2.84
  32  -6 -18   10.48    1.66
  32   6 -18   10.53    2.20
  30  -6 -18   88.69    3.74
 -30  -6  18   96.16    5.48
  30   6 -18   85.74    4.80
  28  -6 -18    6.22    1.16
 -28  -6  18    0.96    1.72
  28   6 -18    5.73    1.77
 -26  -6  18   66.92    4.57
  26  -6 -18   69.72    2.79
  26   6 -18   67.73    4.07
  24  -6 -18    8.04    1.04
 -24  -6  18    7.92    2.14
  24   6 -18    8.29    1.88
 -22  -6  18   41.75    3.86
  22   6 -18   33.08    3.06
 -20  -6  18   48.26    4.20
 -20   6  18   43.43    1.68
  20   6 -18   43.04    3.23
 -18  -6  18   14.94    2.45
 -18   6  18   19.21    1.42
  18   6 -18   18.13    2.34
 -16  -6  18    7.91    2.13
 -16   6  18    9.34    1.25
 -14  -6  18   24.80    3.01
 -14   6  18   27.56    2.04
 -12  -6  18   32.41    3.39
 -12   6  18   30.89    2.44
 -10  -6  18    1.19    1.76
 -10   6  18    1.37    1.11
  -8  -6  18   34.01    3.63
  -8   6  18   36.06    2.94
  -6  -6  18    2.89    2.03
  -6   6  18    4.61    1.61
  -4  -6  18   75.34    5.06
  -4   6  18   71.80    4.09
  -2  -6  18   -0.33    1.92
  -2   6  18    2.44    1.49
   0  -6  18   16.09    3.06
   0   6  18   17.98    2.60
   2  -6  18    8.97    2.67
   2  -6  18   13.63    2.82
   2   6  18   12.96    2.61
   4  -6  18   10.09    2.90
   4  -6  18    5.79    2.84
   4   6  18    5.19    1.92
  39  -7 -18    5.43    1.77
 -39  -7  18    0.59    2.30
  39   7 -18    7.73    2.30
 -37  -7  18    4.33    2.35
  37  -7 -18    1.88    1.43
  37   7 -18    0.77    1.80
  35  -7 -18    9.67    1.85
 -35  -7  18   10.20    2.68
  35   7 -18   11.68    2.51
  33  -7 -18    5.43    1.46
 -33  -7  18    9.83    2.57
  33   7 -18    5.85    1.91
  31  -7 -18   -0.91    0.94
 -31  -7  18    0.44    1.90
  31   7 -18   -1.38    1.53
 -29  -7  18   19.39    3.17
  29   7 -18   17.09    2.70
 -27  -7  18    3.13    2.07
  27   7 -18   -0.24    1.32
 -25  -7  18    1.20    1.81
  25   7 -18   -0.80    1.45
 -23  -7  18   17.56    2.84
  23   7 -18   18.66    2.63
 -21  -7  18    3.11    1.95
  21   7 -18    2.33    1.55
 -19  -7  18   12.18    2.38
  19   7 -18   14.78    2.33
 -17  -7  18    6.40    2.24
 -17   7  18    8.61    1.14
  17   7 -18    8.18    2.01
 -15  -7  18    2.98    2.07
 -15   7  18    2.57    1.04
 -13  -7  18    2.31    2.00
 -13   7  18    1.50    1.05
 -11  -7  18    0.25    1.56
 -11   7  18   -0.68    1.01
  -9  -7  18    4.60    2.08
  -9   7  18    3.88    1.45
  -7  -7  18    0.91    1.86
  -7   7  18    1.19    1.38
  -5  -7  18   -0.19    1.89
  -5   7  18    1.42    1.48
  -3  -7  18    8.16    2.48
  -3   7  18   11.94    2.38
  -1  -7  18    1.37    2.00
  -1   7  18    1.68    1.73
   1  -7  18    0.84    2.10
   1   7  18    2.96    1.90
   3  -7  18   -3.43    1.85
   3  -7  18    3.88    2.39
   3   7  18    1.21    1.99
 -36  -8  18   24.00    3.88
  36   8 -18   18.74    3.14
 -34  -8  18   28.56    3.84
  34   8 -18   19.41    3.10
 -32  -8  18    7.72    2.69
  32   8 -18    7.75    2.40
 -30  -8  18   12.39    2.88
  30   8 -18    7.45    2.21
 -28  -8  18   17.16    3.01
  28   8 -18   14.97    2.78
 -26  -8  18   89.92    5.55
  26   8 -18   93.61    5.29
 -24  -8  18    4.77    2.21
  24   8 -18    5.48    2.06
 -22  -8  18   28.33    3.36
  22   8 -18   30.06    3.31
 -20  -8  18    3.13    2.18
  20   8 -18    2.23    1.52
 -18  -8  18   32.52    3.57
  18   8 -18   27.46    3.05
 -16  -8  18   33.92    3.73
 -14  -8  18   18.52    2.94
 -14   8  18   20.44    1.97
 -12  -8  18   67.00    4.78
 -12   8  18   56.78    3.21
 -10  -8  18   -0.39    1.79
 -10   8  18    1.39    1.28
  -8  -8  18   18.27    3.05
  -8   8  18   15.81    2.21
  -6  -8  18    0.10    1.94
  -6   8  18   -0.94    1.27
  -4  -8  18   26.62    3.68
  -4   8  18   23.68    2.83
  -2  -8  18    3.65    2.58
  -2   8  18    4.59    1.88
   0  -8  18   30.97    4.07
   0   8  18   27.30    3.34
 -33  -9  18    8.32    2.66
  33   9 -18    6.84    2.38
 -31  -9  18   -1.11    2.08
  31   9 -18   -0.48    1.79
 -29  -9  18   10.49    2.98
  29   9 -18    6.78    2.33
 -27  -9  18   -1.24    1.90
  27   9 -18   -1.66    1.77
 -25  -9  18    3.66    2.41
  25   9 -18    2.79    1.83
 -23  -9  18    0.56    1.93
  23   9 -18    1.45    1.86
 -21  -9  18   -1.65    1.78
  21   9 -18   -0.85    1.60
 -19  -9  18    2.54    2.11
  19   9 -18    3.69    2.02
 -17  -9  18    3.61    2.21
 -15  -9  18    6.90    2.54
 -13  -9  18   -0.17    1.93
 -11  -9  18   -1.06    1.83
  -9  -9  18   -1.70    1.80
  -9   9  18   -0.25    1.35
  -7  -9  18    3.01    2.11
  -7   9  18    3.34    1.63
  -5  -9  18    5.40    2.41
  -5   9  18    2.23    1.72
  -3  -9  18    1.86    2.31
  -3   9  18    2.80    1.81
 -28 -10  18   -2.46    1.89
  28  10 -18   -3.22    1.79
 -26 -10  18   55.60    5.07
  26  10 -18   55.13    4.79
 -24 -10  18   12.37    2.97
  24  10 -18   11.43    2.80
 -22 -10  18   44.66    4.50
  22  10 -18   45.83    4.28
 -20 -10  18    4.67    2.63
  20  10 -18    3.02    2.18
 -18 -10  18   15.80    3.22
 -16 -10  18    7.84    2.69
 -14 -10  18   19.73    3.33
 -12 -10  18   41.08    4.43
 -10 -10  18    5.15    2.61
  -8 -10  18   10.66    2.79
 -17 -11  18    4.01    2.53
 -44   0  19    2.99    1.97
  44   0 -19   -1.34    1.46
 -42   0  19   -1.35    1.57
  42   0 -19   -0.77    1.28
  40   0 -19   -1.05    1.25
 -40   0  19    0.36    1.61
 -38   0  19    0.42    1.46
  38   0 -19   -0.77    1.20
  36   0 -19    0.19    1.18
 -36   0  19    0.37    1.27
 -34   0  19   -2.08    1.13
  34   0 -19    0.43    1.08
 -32   0  19   -0.36    1.08
  32   0 -19    0.37    0.96
 -30   0  19    0.66    1.13
  30   0 -19   -0.10    0.88
 -28   0  19   -0.17    1.11
  28   0 -19   -0.63    0.77
 -26   0  19    0.79    1.08
  26   0 -19    0.26    0.81
 -24   0  19   -0.19    0.97
  24   0 -19   -0.17    0.67
 -22   0  19   -0.56    1.00
  22   0 -19   -0.50    0.65
 -20   0  19    0.21    0.68
  20   0 -19   -0.09    0.61
 -20   0  19    0.36    1.09
 -18   0  19   -1.98    0.96
  18   0 -19   -0.17    0.58
 -18   0  19   -0.58    0.59
 -16   0  19   -1.19    0.99
 -16   0  19   -0.14    0.56
 -14   0  19   -0.09    1.07
 -14   0  19   -0.28    0.55
 -12   0  19    0.90    1.16
 -12   0  19   -0.09    1.05
 -12   0  19   -0.23    0.59
 -10   0  19    2.60    1.66
 -10   0  19    0.40    0.68
 -10   0  19    0.20    1.33
  -8   0  19   -1.04    1.18
  -8   0  19   -0.63    1.25
  -6   0  19    1.83    1.51
  -6   0  19    1.44    1.45
  -4   0  19   -0.29    1.46
  -4   0  19    1.27    1.57
  -2   0  19   -0.48    1.44
  -2   0  19   -1.14    1.30
   0   0  19    2.81    1.67
   2   0  19    0.81    1.78
   4   0  19    1.44    1.85
   6   0  19    0.24    1.79
   8   0  19    0.78    1.93
  45  -1 -19    7.73    2.16
 -45  -1  19    4.24    2.28
  45   1 -19   10.16    2.43
 -45   1  19    2.24    2.35
  43  -1 -19    6.33    2.02
 -43  -1  19    4.12    2.21
 -43   1  19    7.88    2.15
  43   1 -19    5.27    2.01
 -41  -1  19   54.23    4.19
  41  -1 -19   61.59    4.01
 -41   1  19   54.35    3.85
  41   1 -19   55.86    4.07
  39  -1 -19    0.61    1.27
 -39  -1  19    2.59    1.74
  39   1 -19    3.61    1.58
 -39   1  19   -1.15    1.32
  37  -1 -19   24.62    2.64
 -37  -1  19   27.99    3.02
  37   1 -19   22.72    2.68
 -37   1  19   31.13    2.75
 -35  -1  19   14.60    2.23
  35  -1 -19   14.63    2.05
  35   1 -19   13.66    2.10
 -35   1  19   14.23    1.94
  33  -1 -19   57.35    3.18
 -33  -1  19   62.36    3.72
  33   1 -19   59.74    3.46
 -33   1  19   58.42    3.24
  31  -1 -19   45.32    2.69
 -31  -1  19   38.16    2.99
 -31   1  19   44.83    2.79
  31   1 -19   41.50    2.82
  29  -1 -19   61.89    3.06
 -29  -1  19   59.85    3.54
 -29   1  19   60.88    2.55
 -29   1  19   61.31    3.09
  29   1 -19   61.14    3.25
  27  -1 -19   26.47    1.97
 -27  -1  19   29.44    2.71
 -27   1  19   24.94    2.20
  27   1 -19   26.38    2.26
 -27   1  19   25.79    1.69
 -25  -1  19   95.50    4.25
  25  -1 -19   98.57    3.55
  25   1 -19   87.72    3.74
 -25   1  19   96.44    3.86
 -23  -1  19   11.43    1.82
  23  -1 -19    8.05    1.08
  23   1 -19    8.70    1.28
 -23   1  19    7.97    1.39
 -21  -1  19   71.12    3.66
  21  -1 -19   75.14    2.78
 -21   1  19   75.30    3.42
  21   1 -19   81.37    3.24
  19  -1 -19  143.96    4.15
 -19  -1  19  139.99    5.36
  19   1 -19  137.46    4.61
 -19   1  19  140.85    5.03
 -19   1  19  139.49    4.15
 -17  -1  19    3.04    1.34
 -17   1  19    1.51    0.61
  17   1 -19    2.70    0.89
 -17   1  19    1.53    1.06
 -15  -1  19   75.03    3.96
 -15   1  19   78.64    2.58
 -15   1  19   82.01    3.71
 -15   1  19   70.43    3.42
 -13  -1  19   20.16    2.46
 -13   1  19   23.58    2.35
 -13   1  19   18.78    1.24
 -13   1  19   17.16    2.10
 -11  -1  19  128.39    5.52
 -11   1  19  131.13    3.79
 -11   1  19  132.71    5.27
 -11   1  19  122.56    5.10
  -9  -1  19    0.77    1.32
  -9   1  19    0.91    1.25
  -9   1  19    1.51    0.65
  -9   1  19    1.73    1.25
  -7  -1  19   68.93    4.12
  -7  -1  19   62.56    4.08
  -7   1  19   63.27    3.76
  -7   1  19   66.23    3.90
  -5  -1  19   48.80    3.93
  -5  -1  19   50.51    3.74
  -5   1  19   51.86    3.66
  -5   1  19   53.87    3.47
  -3  -1  19    9.41    2.18
  -3  -1  19   11.66    2.30
  -3   1  19    9.39    2.02
  -3   1  19   12.12    2.28
  -1  -1  19   32.56    3.55
  -1  -1  19   23.80    2.93
  -1   1  19   24.22    3.05
   1  -1  19   64.63    4.56
   1  -1  19   60.69    4.54
   1   1  19   63.40    4.40
   3  -1  19   27.67    3.42
   3   1  19   30.52    3.62
   5  -1  19    3.51    2.07
   5   1  19    4.61    2.04
   7  -1  19    1.91    2.13
   7   1  19    2.81    2.10
 -44  -2  19   -1.05    2.05
  44  -2 -19    0.59    1.55
  44   2 -19    0.14    1.59
 -42  -2  19   -0.73    1.93
  42  -2 -19   -0.03    1.37
  42   2 -19   -1.49    1.48
  40  -2 -19   13.04    2.18
 -40  -2  19   14.37    2.71
 -40   2  19   14.60    2.11
  40   2 -19   15.42    2.53
  38  -2 -19    2.95    1.38
 -38  -2  19    1.21    1.69
 -38   2  19   -0.41    1.19
  38   2 -19   -0.22    1.39
  36  -2 -19    2.60    1.34
 -36  -2  19    3.54    1.81
  36   2 -19    5.78    1.74
 -36   2  19    5.03    1.40
  34  -2 -19    0.55    0.99
 -34  -2  19   -0.18    1.49
 -34   2  19   -0.86    1.04
  34   2 -19    0.83    1.24
 -32  -2  19    0.28    1.35
  32  -2 -19   -0.61    0.85
 -32   2  19   -0.61    0.94
  32   2 -19    1.12    1.16
  30  -2 -19    3.58    1.10
 -30  -2  19    7.38    1.83
 -30   2  19    6.03    1.23
  30   2 -19    2.55    1.30
  28  -2 -19    1.17    0.83
 -28  -2  19   -1.08    1.13
 -28   2  19    1.01    0.91
 -28   2  19    0.55    0.68
  28   2 -19    0.28    1.00
  26  -2 -19    2.94    0.86
 -26  -2  19    1.76    1.44
 -26   2  19    0.96    1.05
  26   2 -19    3.36    1.20
  24  -2 -19    0.93    0.67
 -24  -2  19    4.52    1.52
 -24   2  19    1.59    0.97
  24   2 -19    0.35    0.94
 -22  -2  19    3.11    1.39
  22  -2 -19    1.03    0.58
 -22   2  19    2.32    1.02
  22   2 -19    1.49    0.95
 -20  -2  19    1.16    1.27
  20  -2 -19    1.50    0.55
  20   2 -19    1.28    0.92
 -20   2  19    0.78    0.86
 -20   2  19    1.92    0.91
 -18  -2  19   21.37    2.37
 -18   2  19   20.92    1.97
 -18   2  19   19.01    1.82
  18   2 -19   19.46    1.85
 -16  -2  19   15.56    2.27
 -16   2  19   14.13    1.66
 -16   2  19   13.01    1.65
 -14  -2  19   -0.32    1.17
 -14   2  19    1.01    0.99
 -14   2  19    0.72    0.98
 -12  -2  19    4.70    1.75
 -12   2  19    4.99    1.46
 -12   2  19    9.11    1.64
 -12   2  19    6.13    0.52
 -10  -2  19    1.20    1.39
 -10   2  19   -0.28    0.97
 -10   2  19   -0.57    0.98
 -10   2  19   -0.22    0.38
  -8  -2  19   20.77    2.71
  -8   2  19   19.10    2.30
  -8   2  19   17.57    2.19
  -6  -2  19    8.53    2.02
  -6  -2  19   11.79    2.22
  -6   2  19    8.73    1.90
  -4  -2  19   -0.73    1.56
  -4  -2  19    0.99    1.64
  -4   2  19   -0.71    1.20
  -2  -2  19   10.50    2.30
  -2  -2  19   14.66    2.52
  -2   2  19   11.54    2.23
   0  -2  19    6.44    2.31
   0  -2  19    3.44    2.09
   0   2  19    8.68    2.13
   2  -2  19    0.94    1.79
   2  -2  19    1.29    2.03
   2   2  19    0.94    1.44
   4  -2  19    0.20    1.79
   4   2  19   -0.79    1.60
   6  -2  19    2.12    2.09
   6   2  19    1.48    1.91
 -43  -3  19   11.34    2.76
  43  -3 -19   19.45    2.79
  43   3 -19   15.98    2.83
  41  -3 -19   19.19    2.60
 -41  -3  19   19.38    3.07
  41   3 -19   14.89    2.63
  39  -3 -19    7.27    1.85
 -39  -3  19    3.64    2.11
  39   3 -19    4.87    1.91
  37  -3 -19   35.18    3.02
 -37  -3  19   36.56    3.66
  37   3 -19   34.05    3.40
  35  -3 -19    6.48    1.45
 -35  -3  19    7.33    2.09
 -35   3  19    6.33    1.30
  35   3 -19    9.80    1.96
  33  -3 -19   90.35    4.04
 -33  -3  19  100.36    5.13
  33   3 -19  103.72    4.80
 -33   3  19   95.18    3.63
 -31  -3  19   -0.40    1.41
  31  -3 -19    1.36    0.90
  31   3 -19    2.60    1.35
 -31   3  19    0.67    0.85
 -29  -3  19   75.27    4.29
  29  -3 -19   77.90    3.29
 -29   3  19   75.63    2.32
 -29   3  19   78.68    3.05
  29   3 -19   83.63    4.03
  27  -3 -19    1.60    0.82
 -27  -3  19    2.07    1.49
 -27   3  19    0.07    0.74
  27   3 -19    0.72    1.05
 -27   3  19    1.53    0.51
  25  -3 -19   74.68    2.81
 -25  -3  19   80.72    4.35
 -25   3  19   76.19    2.52
  25   3 -19   77.91    3.74
 -25   3  19   76.59    2.95
  23  -3 -19    0.27    0.50
 -23  -3  19   -0.77    1.36
  23   3 -19   -1.63    0.81
 -23   3  19   -0.22    0.84
 -23   3  19    2.84    0.83
  21  -3 -19   73.80    2.27
  21  -3 -19   69.96    2.78
 -21  -3  19   78.96    4.19
 -21   3  19   76.69    3.05
  21   3 -19   70.26    3.44
 -21   3  19   69.98    2.81
  19  -3 -19   35.58    1.98
 -19  -3  19   31.52    3.06
 -19   3  19   33.24    2.04
 -19   3  19   35.13    2.16
  19   3 -19   36.63    2.47
 -17  -3  19   43.91    3.26
  17   3 -19   44.13    2.62
 -17   3  19   40.24    2.40
 -17   3  19   40.56    2.46
 -15  -3  19   65.49    4.05
 -15   3  19   69.24    3.21
 -15   3  19   62.32    3.14
 -13  -3  19    1.59    1.65
 -13   3  19    3.53    1.15
 -13   3  19    2.60    1.14
 -11  -3  19  109.59    5.14
 -11   3  19  102.99    4.31
 -11   3  19  100.35    4.31
  -9  -3  19    4.90    1.80
  -9   3  19    8.83    1.62
  -7  -3  19   97.97    5.22
  -7   3  19  101.08    4.61
  -5  -3  19   29.97    3.21
  -5   3  19   29.90    2.87
  -3  -3  19   26.92    3.29
  -3  -3  19   26.42    3.11
  -3   3  19   25.80    2.89
  -1  -3  19   19.33    3.02
  -1  -3  19   18.62    2.90
  -1   3  19   18.83    2.61
   1  -3  19   19.17    3.02
   1  -3  19   26.65    3.68
   1   3  19   19.45    2.83
   3  -3  19   54.96    5.05
   3  -3  19   55.95    4.92
   3   3  19   60.97    4.87
   5  -3  19    4.37    2.36
   5  -3  19    2.25    2.24
   5   3  19    2.61    1.93
   7  -3  19   32.38    4.06
   7   3  19   41.05    4.25
  42  -4 -19    1.18    1.64
 -42  -4  19    2.00    2.38
  42   4 -19    2.10    1.93
 -40  -4  19    5.53    2.42
  40  -4 -19    3.94    1.72
  40   4 -19    9.23    2.39
  38  -4 -19    3.41    1.49
 -38  -4  19    1.84    1.91
  38   4 -19    0.97    1.57
  36  -4 -19    1.37    1.21
 -36  -4  19    1.03    1.77
  36   4 -19    1.04    1.51
 -34  -4  19   -0.43    1.70
  34  -4 -19    2.64    1.13
  34   4 -19    0.98    1.39
  32  -4 -19    4.80    1.28
 -32  -4  19    5.54    1.92
  32   4 -19    3.58    1.54
  30  -4 -19    2.04    0.94
 -30  -4  19    1.97    1.62
  30   4 -19    1.03    1.27
 -28  -4  19    1.11    1.54
  28  -4 -19   -0.45    0.66
 -28   4  19    0.42    0.58
  28   4 -19    0.63    1.18
  26  -4 -19    1.39    0.69
 -26  -4  19   -1.15    1.37
  26   4 -19   -0.33    1.02
 -26   4  19    1.40    0.68
  24  -4 -19    3.52    0.71
 -24  -4  19    0.85    1.44
 -24   4  19    3.83    0.78
  24   4 -19    0.95    1.11
 -24   4  19    2.61    0.51
 -22  -4  19   13.21    2.32
  22  -4 -19    9.81    0.76
 -22   4  19    9.47    0.97
 -22   4  19    9.76    1.10
  22   4 -19    9.98    1.69
 -20  -4  19   15.33    2.49
 -20   4  19   17.65    1.47
  20   4 -19   16.55    1.96
 -20   4  19   17.20    1.43
 -18  -4  19    5.57    1.78
 -18   4  19    9.38    1.22
 -18   4  19    6.66    1.12
  18   4 -19    7.82    1.53
 -16  -4  19    4.33    1.79
 -16   4  19    3.41    1.00
 -14  -4  19   38.91    3.38
 -14   4  19   34.07    2.25
 -12  -4  19    3.12    1.68
 -12   4  19    3.80    1.25
 -10  -4  19    2.69    1.83
 -10   4  19    2.15    1.16
  -8  -4  19   -0.64    1.49
  -8   4  19    1.31    1.20
  -6  -4  19    0.38    1.62
  -6   4  19    0.31    1.28
  -4  -4  19    9.79    2.43
  -4   4  19    7.63    1.85
  -2  -4  19    4.08    2.15
  -2  -4  19    5.40    2.16
  -2   4  19    0.47    1.36
   0  -4  19    4.39    2.14
   0  -4  19    5.01    2.58
   0   4  19    3.24    1.81
   2  -4  19    1.05    2.13
   2  -4  19   -1.13    1.96
   2   4  19    2.08    1.78
   4  -4  19    2.31    2.14
   4  -4  19    1.19    2.21
   4   4  19   -0.33    1.83
   6  -4  19    3.69    2.37
   6  -4  19   -0.33    2.19
   6   4  19    3.17    2.09
  41  -5 -19    6.83    1.85
 -41  -5  19    5.72    2.50
  41   5 -19    6.29    2.27
 -39  -5  19    6.05    2.41
  39  -5 -19    5.30    1.72
  39   5 -19    4.11    2.00
  37  -5 -19   28.13    2.74
 -37  -5  19   34.22    3.72
  37   5 -19   28.66    3.23
  35  -5 -19   -0.45    1.06
 -35  -5  19    1.11    1.93
  35   5 -19   -2.69    1.24
 -33  -5  19   93.68    5.35
  33  -5 -19   94.53    4.07
  33   5 -19   93.74    4.87
 -31  -5  19   10.28    2.31
  31  -5 -19   15.23    1.73
  31   5 -19   16.96    2.50
 -29  -5  19   90.86    5.20
  29  -5 -19   92.02    3.55
  29   5 -19   89.36    4.60
  27  -5 -19    1.45    0.75
 -27  -5  19    2.80    1.71
  27   5 -19    0.30    1.25
  25  -5 -19   42.06    1.88
 -25  -5  19   47.81    4.03
  25   5 -19   46.70    3.26
 -23  -5  19   89.96    4.89
  23   5 -19   75.31    4.12
 -21  -5  19   35.10    3.54
  21   5 -19   28.25    2.64
 -21   5  19   29.38    1.47
 -19  -5  19   80.79    4.69
  19   5 -19   78.16    4.00
 -19   5  19   80.79    2.96
 -17  -5  19    5.51    1.94
 -17   5  19    4.32    1.05
  17   5 -19    2.74    1.35
 -15  -5  19   26.61    3.14
 -15   5  19   21.36    1.94
 -13  -5  19    1.35    1.73
 -13   5  19    2.47    1.07
 -11  -5  19   23.77    3.09
 -11   5  19   22.18    2.22
  -9  -5  19   10.37    2.31
  -9   5  19   10.55    1.78
  -7  -5  19   42.42    3.98
  -7   5  19   45.61    3.12
  -5  -5  19    2.96    1.98
  -5   5  19    2.94    1.53
  -3  -5  19   61.81    4.75
  -3   5  19   62.56    4.03
  -1  -5  19   11.76    2.89
  -1   5  19   10.59    2.29
   1  -5  19   10.27    2.66
   1  -5  19    4.84    2.33
   1   5  19    7.72    2.19
   3  -5  19   35.89    4.49
   3  -5  19   31.61    3.96
   3   5  19   23.57    3.19
   5  -5  19    4.90    2.38
   5  -5  19    1.34    2.30
   5   5  19    2.48    2.06
  40  -6 -19    1.19    1.52
 -40  -6  19    6.71    2.85
  40   6 -19    3.08    2.06
  38  -6 -19   -1.54    1.18
 -38  -6  19   -0.12    2.11
  38   6 -19    1.15    1.77
 -36  -6  19   -0.28    2.05
  36  -6 -19   -0.41    1.16
  36   6 -19   -0.13    1.71
  34  -6 -19   10.70    1.75
 -34  -6  19   13.08    2.62
  34   6 -19    8.89    2.15
  32  -6 -19    6.59    1.42
 -32  -6  19    8.14    2.31
  32   6 -19    5.68    1.84
 -30  -6  19    4.28    2.21
  30  -6 -19    1.95    0.98
  30   6 -19    0.85    1.46
 -28  -6  19   34.72    3.75
  28  -6 -19   39.93    3.35
  28   6 -19   33.02    3.20
 -26  -6  19   22.40    3.15
  26   6 -19   21.92    2.73
 -24  -6  19    3.62    2.07
  24   6 -19    3.67    1.63
 -22  -6  19    6.94    2.10
  22   6 -19    9.12    1.93
 -20  -6  19    5.31    2.01
 -20   6  19    2.44    0.75
  20   6 -19    0.29    1.25
 -18  -6  19    8.79    2.37
  18   6 -19    6.24    1.75
 -18   6  19    6.89    1.08
 -16  -6  19   -0.32    1.66
 -16   6  19    3.06    1.05
 -14  -6  19   -0.41    1.58
 -14   6  19    1.21    1.01
 -12  -6  19    2.59    1.96
 -12   6  19    4.67    1.33
 -10  -6  19    2.61    1.91
 -10   6  19    2.15    1.26
  -8  -6  19    0.04    1.73
  -8   6  19    1.25    1.28
  -6  -6  19    5.61    2.18
  -6   6  19    6.24    1.72
  -4  -6  19    8.03    2.65
  -4   6  19    8.60    2.01
  -2  -6  19    3.13    2.14
  -2   6  19    3.95    1.78
   0  -6  19    0.85    1.98
   0   6  19    1.07    1.71
   2  -6  19   -1.58    1.88
   2  -6  19    0.51    2.12
   2   6  19    0.28    1.79
 -39  -7  19   12.19    3.15
  39   7 -19   13.36    2.81
 -37  -7  19   37.51    4.35
  37   7 -19   28.17    3.50
 -35  -7  19    0.99    2.09
  35   7 -19    0.27    1.62
 -33  -7  19   16.56    3.00
  33   7 -19   21.05    3.13
 -31  -7  19    1.05    1.98
  31   7 -19    1.56    1.82
 -29  -7  19   45.04    4.47
  29   7 -19   49.09    4.21
 -27  -7  19    3.57    2.17
  27   7 -19    5.16    1.78
 -25  -7  19   19.18    3.00
  25   7 -19   19.31    2.58
 -23  -7  19   28.21    3.39
  23   7 -19   36.02    3.53
 -21  -7  19    8.16    2.40
  21   7 -19   12.06    2.28
 -19  -7  19   16.34    2.84
  19   7 -19   14.24    2.29
 -17  -7  19   46.53    4.27
 -17   7  19   44.12    2.55
 -15  -7  19  106.04    5.72
 -15   7  19  100.02    3.93
 -13  -7  19   -0.85    1.62
 -13   7  19   -0.52    0.97
 -11  -7  19   45.93    4.39
 -11   7  19   43.09    2.90
  -9  -7  19   -0.71    1.76
  -9   7  19    1.11    1.34
  -7  -7  19   33.31    3.83
  -7   7  19   40.26    3.38
  -5  -7  19    7.15    2.37
  -5   7  19    7.73    2.03
  -3  -7  19   44.70    4.49
  -3   7  19   38.90    3.69
  -1  -7  19   24.17    3.68
  -1   7  19   32.92    3.60
   1  -7  19    8.30    2.84
   1   7  19    4.00    2.15
 -36  -8  19   -0.46    2.08
  36   8 -19   -0.43    1.57
 -34  -8  19    2.24    2.38
  34   8 -19    3.98    2.12
 -32  -8  19   -0.64    2.08
  32   8 -19   -0.45    1.72
 -30  -8  19    2.23    2.21
  30   8 -19    0.38    1.63
 -28  -8  19    3.12    2.14
  28   8 -19    4.29    1.87
 -26  -8  19    2.67    2.08
  26   8 -19   -0.90    1.57
 -24  -8  19    2.08    2.05
  24   8 -19    1.12    1.60
 -22  -8  19   -0.42    1.83
  22   8 -19    1.53    1.73
 -20  -8  19   -0.13    1.88
  20   8 -19    1.60    1.43
 -18  -8  19   20.14    3.18
 -16  -8  19    3.80    2.24
 -14  -8  19    7.47    2.49
 -12  -8  19   -1.47    1.73
 -12   8  19    0.57    1.17
 -10  -8  19    3.84    2.13
 -10   8  19    1.61    1.35
  -8  -8  19    0.70    2.01
  -8   8  19    1.96    1.42
  -6  -8  19    6.25    2.51
  -6   8  19    7.61    1.97
  -4  -8  19    0.95    2.18
  -4   8  19    1.68    1.67
  -2  -8  19    2.71    2.43
  -2   8  19    5.76    2.12
 -33  -9  19    2.10    2.38
  33   9 -19    7.65    2.41
 -31  -9  19    1.41    2.38
  31   9 -19   -0.43    1.70
 -29  -9  19   41.54    4.49
  29   9 -19   42.87    4.34
 -27  -9  19   22.06    3.54
  27   9 -19   15.29    2.73
 -25  -9  19   51.95    4.84
  25   9 -19   48.40    4.28
 -23  -9  19   11.88    2.89
  23   9 -19    8.62    2.31
 -21  -9  19    7.31    2.42
  21   9 -19    8.00    2.32
 -19  -9  19    6.35    2.62
 -17  -9  19    1.26    2.14
 -15  -9  19   40.51    4.29
 -13  -9  19    0.78    2.00
 -11  -9  19   37.61    4.37
  -9  -9  19   -0.49    2.10
  -9   9  19   -0.58    1.93
  -7  -9  19   20.49    3.53
  -7   9  19   13.65    2.43
  -5  -9  19    7.01    2.61
  -5   9  19    5.45    1.97
 -28 -10  19    0.18    2.15
  28  10 -19    1.70    1.88
 -26 -10  19    6.10    2.60
  26  10 -19   12.38    2.95
 -24 -10  19    2.08    2.22
  24  10 -19   -1.53    1.72
 -22 -10  19    4.76    2.60
  22  10 -19    8.93    2.55
 -20 -10  19    5.03    2.50
 -18 -10  19    4.57    2.53
 -16 -10  19    1.28    2.24
 -14 -10  19    1.38    2.28
 -12 -10  19    1.88    2.16
 -10 -10  19    6.52    2.68
 -44   0  20   45.58    3.99
  44   0 -20   37.65    3.73
  42   0 -20    1.67    1.65
 -42   0  20    0.00    1.63
 -40   0  20   53.10    3.84
  40   0 -20   56.49    3.82
  38   0 -20   -0.89    1.24
 -38   0  20   -0.15    1.38
 -36   0  20   94.59    4.48
  36   0 -20   88.13    4.45
 -34   0  20    1.88    1.37
  34   0 -20    1.31    1.24
 -32   0  20   24.14    2.48
  32   0 -20   19.27    2.10
 -30   0  20   63.09    3.47
  30   0 -20   60.01    3.10
  28   0 -20    0.70    0.89
 -28   0  20    4.62    1.38
 -26   0  20   89.67    4.12
  26   0 -20   95.68    3.70
  24   0 -20  114.00    4.03
 -24   0  20  110.51    4.61
  22   0 -20  139.62    4.61
 -22   0  20  153.10    5.46
 -20   0  20   22.29    1.73
 -20   0  20   24.73    2.36
  20   0 -20   21.65    1.62
 -18   0  20   80.87    3.88
 -18   0  20   79.87    2.99
 -16   0  20   43.57    3.10
 -16   0  20   42.36    2.09
 -14   0  20  140.46    5.63
 -14   0  20  141.80    4.36
 -12   0  20   40.19    3.30
 -12   0  20   36.09    1.95
 -12   0  20   33.10    2.90
 -10   0  20  123.36    5.36
 -10   0  20  113.49    5.08
  -8   0  20  107.64    5.16
  -8   0  20  105.03    5.04
  -6   0  20    1.92    1.62
  -6   0  20    5.44    1.91
  -4   0  20   68.80    4.37
  -4   0  20   66.02    4.14
  -2   0  20   11.24    2.36
  -2   0  20   15.93    2.69
   0   0  20   38.82    3.88
   2   0  20    2.61    2.09
   4   0  20   28.09    3.56
   6   0  20    6.05    2.36
 -45  -1  20   -1.64    1.86
  45  -1 -20    1.53    1.68
  45   1 -20    1.18    1.80
  43  -1 -20    0.36    1.50
 -43  -1  20   -0.73    1.79
 -43   1  20   -0.87    1.59
  43   1 -20    4.13    1.85
 -41  -1  20    7.51    2.14
  41  -1 -20    6.85    1.94
  41   1 -20    7.93    2.12
 -41   1  20    5.54    1.86
 -39  -1  20    4.16    1.85
  39  -1 -20    5.15    1.74
  39   1 -20    4.21    1.64
 -39   1  20    2.24    1.57
  37  -1 -20    3.39    1.41
 -37  -1  20    3.68    1.79
  37   1 -20    5.39    1.74
 -37   1  20    6.72    1.60
  35  -1 -20   -0.38    1.06
 -35  -1  20   -0.21    1.36
  35   1 -20    0.56    1.16
 -35   1  20    0.18    1.15
  33  -1 -20   -0.89    0.98
 -33  -1  20    1.40    1.41
 -33   1  20    0.33    1.18
  33   1 -20   -0.78    1.03
  31  -1 -20    0.54    0.97
 -31  -1  20    0.22    1.33
  31   1 -20    1.35    1.05
 -31   1  20    1.19    1.15
  29  -1 -20    7.76    1.37
 -29  -1  20    8.68    1.78
 -29   1  20   12.24    1.64
  29   1 -20    8.82    1.52
 -27  -1  20   -0.83    1.10
  27  -1 -20    0.75    0.79
 -27   1  20   -1.39    0.91
  27   1 -20    0.63    0.88
  25  -1 -20    9.63    1.23
 -25  -1  20   10.03    1.91
 -25   1  20    9.43    1.65
  25   1 -20    9.51    1.43
  23  -1 -20   39.28    2.01
 -23  -1  20   39.06    2.99
 -23   1  20   34.05    2.62
  23   1 -20   39.54    2.31
 -21  -1  20    3.36    1.39
  21  -1 -20    2.28    0.72
 -21   1  20    2.22    0.76
  21   1 -20    3.62    0.97
 -21   1  20    2.95    1.21
 -19  -1  20   22.59    2.42
 -19   1  20   17.37    2.03
  19   1 -20   17.41    1.63
 -19   1  20   20.07    1.41
 -17  -1  20    1.08    1.35
 -17   1  20   -0.01    1.17
 -17   1  20    0.39    0.57
 -17   1  20    1.43    1.23
 -15  -1  20    4.33    1.78
 -15   1  20    6.95    1.68
 -15   1  20    9.94    1.93
 -15   1  20    6.91    0.84
 -13  -1  20    7.21    1.70
 -13   1  20    5.52    1.47
 -13   1  20    5.72    1.48
 -13   1  20    4.31    0.76
 -11  -1  20    0.64    1.35
 -11   1  20    0.93    1.30
 -11   1  20    2.51    1.25
  -9  -1  20   12.62    2.39
  -9  -1  20   10.55    2.08
  -9   1  20   11.30    2.12
  -9   1  20   11.63    2.11
  -7  -1  20    2.70    1.65
  -7  -1  20   -0.12    1.64
  -7   1  20    2.31    1.52
  -7   1  20    1.50    1.58
  -5  -1  20    9.27    2.17
  -5  -1  20    8.94    2.10
  -5   1  20    9.63    2.05
  -5   1  20   12.92    2.29
  -3  -1  20   -0.69    1.47
  -3  -1  20   -1.87    1.48
  -3   1  20    0.67    1.58
  -1  -1  20    4.43    2.13
  -1  -1  20    6.80    2.24
  -1   1  20    4.70    2.03
   1  -1  20   -0.04    1.61
   1  -1  20    1.59    1.78
   1   1  20    1.63    1.77
   3  -1  20   -0.32    1.73
   3   1  20   -0.39    1.72
   5  -1  20    2.43    2.26
   5   1  20    3.97    2.00
 -44  -2  20   47.28    4.44
  44  -2 -20   41.11    3.81
  44   2 -20   45.03    4.10
 -42  -2  20    2.82    2.05
  42  -2 -20   -0.68    1.43
  42   2 -20    5.92    2.03
 -40  -2  20   24.48    3.14
  40  -2 -20   20.96    2.55
 -40   2  20   21.90    2.57
  40   2 -20   20.32    2.77
 -38  -2  20   -1.86    1.49
  38  -2 -20    0.83    1.17
  38   2 -20   -1.18    1.19
 -38   2  20    0.18    1.15
 -36  -2  20   59.07    4.11
  36  -2 -20   54.55    3.31
 -36   2  20   56.97    3.17
  36   2 -20   61.08    3.83
 -34  -2  20    0.85    1.52
  34  -2 -20    3.53    1.20
  34   2 -20    0.94    1.31
 -34   2  20    1.91    1.16
 -32  -2  20   56.39    3.77
  32  -2 -20   63.41    3.19
  32   2 -20   62.31    3.55
 -32   2  20   62.25    3.07
 -30  -2  20   22.60    2.69
  30  -2 -20   29.00    2.24
 -30   2  20   26.34    2.17
  30   2 -20   26.32    2.54
  28  -2 -20   33.98    2.09
 -28  -2  20   32.42    3.04
 -28   2  20   30.18    2.22
  28   2 -20   34.36    2.52
  26  -2 -20   13.00    1.34
 -26  -2  20   14.06    2.19
  26   2 -20    9.41    1.58
 -26   2  20   14.69    1.63
  24  -2 -20   27.21    1.62
 -24  -2  20   24.66    2.67
 -24   2  20   28.07    2.14
  24   2 -20   30.53    2.40
 -22  -2  20   47.11    3.42
  22  -2 -20   46.04    1.90
 -22   2  20   46.75    2.54
 -22   2  20   43.63    2.61
  22   2 -20   41.97    2.54
 -20  -2  20    6.96    1.92
  20  -2 -20    8.34    0.82
 -20   2  20    6.83    1.45
  20   2 -20    8.46    1.38
 -20   2  20   11.19    1.62
 -18  -2  20   51.76    3.61
 -18   2  20   50.71    2.93
  18   2 -20   52.17    2.72
 -18   2  20   48.07    2.91
 -16  -2  20    0.18    1.57
 -16   2  20    1.78    1.12
 -16   2  20    1.22    1.10
 -14  -2  20   61.83    3.95
 -14   2  20   66.42    3.47
 -14   2  20   69.56    3.40
 -12  -2  20    1.92    1.60
 -12   2  20    4.36    1.39
 -12   2  20    3.53    1.39
 -10  -2  20  120.65    5.68
 -10   2  20  125.02    5.12
 -10   2  20  118.43    5.12
  -8  -2  20   15.60    2.42
  -8   2  20   15.63    2.17
  -8   2  20   20.15    2.49
  -6  -2  20   29.46    3.22
  -6  -2  20   29.87    3.20
  -6   2  20   33.46    3.17
  -4  -2  20   18.98    2.84
  -4  -2  20   22.70    2.96
  -4   2  20   25.00    2.85
  -2  -2  20   23.88    3.22
  -2  -2  20   23.89    3.36
  -2   2  20   24.74    2.89
   0  -2  20   71.67    4.95
   0  -2  20   58.92    4.44
   0   2  20   58.45    4.68
   2  -2  20    2.10    2.15
   2  -2  20    1.15    1.89
   2   2  20    3.54    1.95
   4  -2  20   53.97    4.90
   4   2  20   53.59    4.64
 -43  -3  20    2.17    2.09
  43  -3 -20   -2.56    1.23
  43   3 -20    1.77    1.79
  41  -3 -20    4.98    1.71
 -41  -3  20    3.01    2.08
  41   3 -20    3.55    1.92
  39  -3 -20    9.14    1.88
 -39  -3  20   12.45    2.59
  39   3 -20    8.18    2.02
  37  -3 -20    0.48    1.14
 -37  -3  20   -0.29    1.63
  37   3 -20    1.80    1.53
 -35  -3  20    2.47    1.71
  35  -3 -20    2.31    1.21
 -35   3  20    1.89    1.37
  35   3 -20    0.81    1.37
  33  -3 -20    8.63    1.47
 -33  -3  20    8.14    2.10
  33   3 -20    8.24    1.81
 -33   3  20   10.97    1.42
 -31  -3  20   -0.52    1.41
  31  -3 -20   -1.04    0.75
  31   3 -20   -1.00    1.06
 -31   3  20    0.17    0.85
 -29  -3  20    8.22    2.00
  29  -3 -20    6.74    1.22
 -29   3  20    8.02    1.19
  29   3 -20    6.55    1.56
 -27  -3  20    2.35    1.64
  27  -3 -20    2.22    0.83
 -27   3  20    2.49    0.98
 -27   3  20    3.62    0.75
  27   3 -20    2.33    1.26
 -25  -3  20   28.24    2.79
  25  -3 -20   30.79    1.66
 -25   3  20   31.51    1.93
 -25   3  20   29.14    1.61
  25   3 -20   28.99    2.54
  23  -3 -20   11.97    0.99
 -23  -3  20    7.96    1.86
 -23   3  20   11.12    1.23
 -23   3  20    9.80    1.33
  23   3 -20    9.01    1.52
  21  -3 -20    0.35    0.37
 -21  -3  20    0.86    1.46
  21   3 -20    2.85    1.06
 -21   3  20    0.53    0.86
 -21   3  20    1.08    0.80
 -19  -3  20   29.57    3.00
 -19   3  20   27.30    1.97
 -19   3  20   26.44    2.00
  19   3 -20   23.06    2.25
 -17  -3  20    4.48    1.71
 -17   3  20    3.05    1.10
 -17   3  20    4.25    1.16
 -15  -3  20    1.51    1.54
 -15   3  20    4.18    1.23
 -15   3  20    1.33    1.03
 -13  -3  20   18.61    2.50
 -13   3  20   20.51    2.21
 -13   3  20   23.76    2.31
 -11  -3  20    4.85    1.84
 -11   3  20    3.20    1.30
  -9  -3  20    4.93    1.94
  -9   3  20    2.37    1.33
  -7  -3  20    0.52    1.63
  -7   3  20    2.93    1.45
  -5  -3  20    3.08    1.87
  -5  -3  20   -0.13    1.68
  -5   3  20    0.62    1.31
  -3  -3  20    2.11    1.91
  -3  -3  20    3.54    2.00
  -3   3  20    5.23    1.81
  -1  -3  20   12.52    2.82
  -1  -3  20   10.10    2.57
  -1   3  20    9.77    2.31
   1  -3  20    0.16    2.10
   1  -3  20   -0.60    1.90
   1   3  20    0.32    1.53
   3  -3  20    7.99    2.77
   3  -3  20    6.21    2.71
   3   3  20    9.92    2.60
   5  -3  20    3.70    2.27
   5   3  20    1.26    1.93
 -42  -4  20    9.78    2.64
  42  -4 -20   13.57    2.35
  42   4 -20   12.65    2.60
 -40  -4  20   45.33    4.47
  40  -4 -20   36.60    3.24
  40   4 -20   34.11    3.62
  38  -4 -20   -0.93    1.11
 -38  -4  20    0.64    1.89
  38   4 -20   -1.58    1.37
  36  -4 -20   47.62    3.12
 -36  -4  20   61.68    4.50
  36   4 -20   53.02    3.90
 -34  -4  20   11.80    2.41
  34  -4 -20   17.48    1.96
  34   4 -20   14.98    2.36
 -32  -4  20   68.86    4.52
  32  -4 -20   64.42    3.08
  32   4 -20   51.67    3.66
 -30  -4  20    6.47    2.09
  30  -4 -20    7.62    1.28
  30   4 -20    9.24    1.81
 -28  -4  20   14.05    2.52
  28  -4 -20   19.51    1.65
 -28   4  20   18.44    1.43
  28   4 -20   15.65    2.25
 -26  -4  20   11.05    2.21
  26  -4 -20   14.61    1.25
  26   4 -20   13.18    1.88
 -26   4  20   12.57    1.17
 -24  -4  20    4.13    1.83
  24  -4 -20    5.81    0.71
 -24   4  20    5.78    0.94
 -24   4  20    5.34    0.77
  24   4 -20    5.30    1.48
 -22  -4  20   74.95    4.39
 -22   4  20   71.60    2.81
 -22   4  20   73.75    2.70
  22   4 -20   73.32    3.77
 -20  -4  20   21.57    2.76
 -20   4  20   17.56    1.61
  20   4 -20   16.99    2.13
 -20   4  20   18.82    1.59
 -18  -4  20   79.37    4.55
 -18   4  20   83.41    3.33
  18   4 -20   88.92    3.98
 -18   4  20   79.36    3.28
 -16  -4  20    5.33    1.83
 -16   4  20    5.68    1.21
 -14  -4  20   26.29    2.97
 -14   4  20   28.59    2.38
 -12  -4  20   17.94    2.61
 -12   4  20   24.25    2.34
 -10  -4  20   42.48    3.89
 -10   4  20   42.37    2.93
  -8  -4  20   54.74    4.21
  -8   4  20   51.13    3.34
  -6  -4  20   48.11    4.42
  -6   4  20   46.16    3.37
  -4  -4  20   32.46    3.81
  -4   4  20   20.20    2.69
  -2  -4  20   13.98    2.99
  -2  -4  20   10.01    2.64
  -2   4  20   11.50    2.37
   0  -4  20   22.22    3.36
   0  -4  20   19.50    3.31
   0   4  20   21.08    2.99
   2  -4  20   -1.34    2.09
   2  -4  20    2.67    2.34
   2   4  20   -0.76    1.70
   4  -4  20   32.60    4.20
   4  -4  20   31.97    4.08
   4   4  20   37.06    4.10
 -41  -5  20   -4.47    1.86
  41  -5 -20   -0.11    1.38
  41   5 -20   -1.20    1.67
 -39  -5  20   -1.55    1.91
  39  -5 -20    1.72    1.36
  39   5 -20   -0.97    1.54
  37  -5 -20   12.24    1.90
 -37  -5  20   11.49    2.72
  37   5 -20   11.58    2.42
 -35  -5  20    2.02    1.90
  35  -5 -20    2.21    1.17
  35   5 -20    4.01    1.72
  33  -5 -20    0.67    0.97
 -33  -5  20    3.91    2.06
  33   5 -20    1.97    1.58
 -31  -5  20    0.01    1.84
  31  -5 -20    0.79    0.86
  31   5 -20    0.59    1.37
  29  -5 -20    3.01    0.87
 -29  -5  20    3.01    1.79
  29   5 -20    2.68    1.43
 -27  -5  20    5.89    2.04
  27   5 -20    3.91    1.58
 -25  -5  20    6.39    2.14
  25   5 -20    4.02    1.54
 -23  -5  20    6.37    2.04
  23   5 -20    3.78    1.44
 -21  -5  20    4.06    1.90
  21   5 -20    3.91    1.50
 -21   5  20    1.60    0.75
 -19  -5  20    0.52    1.57
 -19   5  20    0.99    0.82
  19   5 -20   -0.76    1.00
 -17  -5  20   12.44    2.41
 -17   5  20   13.09    1.56
 -15  -5  20    0.71    1.72
 -15   5  20    2.27    1.07
 -13  -5  20    6.96    2.13
 -13   5  20    5.90    1.39
 -11  -5  20    1.34    1.84
 -11   5  20    0.55    1.15
  -9  -5  20    5.00    2.07
  -9   5  20    3.52    1.47
  -7  -5  20    3.46    2.09
  -7   5  20    1.29    1.38
  -5  -5  20    4.33    2.36
  -5   5  20    2.78    1.64
  -3  -5  20    7.87    2.51
  -3   5  20    4.42    1.89
  -1  -5  20    1.58    2.04
  -1  -5  20    0.25    1.97
  -1   5  20    2.21    1.74
   1  -5  20   -2.11    2.25
   1  -5  20    4.13    2.34
   1   5  20   -0.28    1.45
   3  -5  20   -0.63    2.13
   3  -5  20    0.56    2.11
   3   5  20    0.50    1.90
 -40  -6  20   19.74    3.48
  40  -6 -20   18.39    2.47
  40   6 -20   17.50    3.07
 -38  -6  20    2.23    2.51
  38  -6 -20   -0.28    1.23
  38   6 -20   -0.48    1.61
 -36  -6  20   23.11    3.43
  36  -6 -20   23.24    2.64
  36   6 -20   16.94    2.76
 -34  -6  20    9.91    2.62
  34   6 -20   10.82    2.32
 -32  -6  20   36.79    3.97
  32   6 -20   30.42    3.18
 -30  -6  20    2.58    1.93
  30   6 -20    2.44    1.49
 -28  -6  20   39.34    3.97
  28   6 -20   45.38    3.75
 -26  -6  20   23.90    3.00
  26   6 -20   19.67    2.52
 -24  -6  20    0.72    1.77
  24   6 -20   -0.67    1.30
 -22  -6  20   54.46    4.26
  22   6 -20   55.79    3.71
 -20  -6  20    1.41    1.90
  20   6 -20   -1.57    1.16
 -18  -6  20   75.76    4.85
 -18   6  20   76.46    3.14
 -16  -6  20   -0.52    1.69
 -16   6  20    2.32    1.04
 -14  -6  20   68.98    4.64
 -14   6  20   61.42    3.23
 -12  -6  20   18.80    2.86
 -12   6  20   17.52    2.06
 -10  -6  20   22.96    3.40
 -10   6  20   22.14    2.40
  -8  -6  20   25.95    3.59
  -8   6  20   26.94    2.75
  -6  -6  20   40.97    4.38
  -6   6  20   40.37    3.51
  -4  -6  20   47.44    4.70
  -4   6  20   49.35    3.67
  -2  -6  20   10.28    2.83
  -2   6  20    9.43    2.21
   0  -6  20   29.34    4.03
   0  -6  20   29.86    3.83
   0   6  20   29.87    3.59
 -39  -7  20    1.69    2.32
  39   7 -20   -0.80    1.69
 -37  -7  20    7.33    2.64
  37   7 -20    9.10    2.38
 -35  -7  20    1.60    2.25
  35   7 -20   -1.41    1.57
 -33  -7  20   14.54    2.93
  33   7 -20   10.67    2.35
 -31  -7  20    8.67    2.51
  31   7 -20   14.52    2.61
 -29  -7  20    1.19    2.14
  29   7 -20    1.71    1.65
 -27  -7  20    0.84    1.87
  27   7 -20    1.59    1.60
 -25  -7  20    6.44    2.40
  25   7 -20    8.00    2.08
 -23  -7  20   14.68    3.04
  23   7 -20   12.01    2.18
 -21  -7  20   -0.36    1.81
  21   7 -20    1.64    1.51
 -19  -7  20    3.21    2.25
 -17  -7  20   17.95    3.12
 -15  -7  20    7.83    2.44
 -15   7  20    4.83    1.28
 -13  -7  20    2.63    2.10
 -13   7  20    0.96    1.19
 -11  -7  20   -1.15    1.98
 -11   7  20    0.30    1.25
  -9  -7  20   -1.32    1.80
  -9   7  20   -0.03    1.30
  -7  -7  20    9.13    2.65
  -7   7  20    9.46    2.06
  -5  -7  20   -1.32    2.07
  -5   7  20   -0.73    1.49
  -3  -7  20    4.66    2.43
  -3   7  20   -0.57    1.71
  -1  -7  20   -0.50    2.13
  -1   7  20    2.43    1.85
 -36  -8  20    8.60    2.83
  36   8 -20   13.98    2.83
 -34  -8  20    4.44    2.47
  34   8 -20   -2.43    1.55
 -32  -8  20    6.27    2.66
  32   8 -20    7.96    2.27
 -30  -8  20    4.67    2.34
  30   8 -20   11.16    2.54
 -28  -8  20   35.78    4.19
  28   8 -20   42.00    4.11
 -26  -8  20   41.72    4.33
  26   8 -20   38.51    3.71
 -24  -8  20    9.62    2.60
  24   8 -20    5.70    1.99
 -22  -8  20   12.77    2.77
  22   8 -20   16.01    2.63
 -20  -8  20    4.33    2.39
  20   8 -20    3.70    1.72
 -18  -8  20   33.09    4.02
 -16  -8  20   11.28    2.77
 -14  -8  20   47.17    4.37
 -12  -8  20   17.40    3.18
 -12   8  20   21.53    2.41
 -10  -8  20   19.67    3.33
 -10   8  20   24.11    2.63
  -8  -8  20    3.61    2.46
  -8   8  20    2.17    1.63
  -6  -8  20   18.76    3.41
  -6   8  20   16.62    2.57
  -4  -8  20   30.01    4.02
  -4   8  20   33.42    3.50
 -31  -9  20    3.73    2.35
  31   9 -20    5.68    2.19
 -29  -9  20    2.72    2.48
  29   9 -20    7.64    2.61
 -27  -9  20    2.76    2.30
  27   9 -20    1.19    1.86
 -25  -9  20    3.55    2.34
  25   9 -20    2.07    2.02
 -23  -9  20    2.06    2.22
  23   9 -20    0.78    1.83
 -21  -9  20    6.52    2.51
 -19  -9  20   -0.52    2.01
 -17  -9  20    4.26    2.42
 -15  -9  20   -0.26    2.20
 -13  -9  20    0.03    1.98
 -11  -9  20    0.19    2.22
  -9  -9  20   -0.03    2.06
  -7  -9  20    5.52    2.53
  -7   9  20    2.38    2.13
 -26 -10  20   36.34    4.37
  26  10 -20   37.10    4.11
 -24 -10  20   11.26    2.95
  24  10 -20    7.96    2.34
 -22 -10  20    6.04    2.63
 -20 -10  20    1.17    2.37
 -18 -10  20   15.22    3.23
 -16 -10  20    3.71    2.41
 -14 -10  20   44.16    4.64
  44   0 -21    1.12    1.61
 -44   0  21    2.96    1.93
  42   0 -21   -1.28    1.39
 -42   0  21    0.41    1.65
 -40   0  21    0.35    1.57
  40   0 -21   -1.69    1.26
  38   0 -21    0.71    1.27
 -38   0  21   -0.64    1.27
  36   0 -21   -1.73    1.11
 -36   0  21   -0.90    1.32
 -34   0  21   -0.85    1.19
  34   0 -21   -0.44    1.03
 -32   0  21    1.11    1.26
  32   0 -21   -0.47    0.90
  30   0 -21    1.17    0.96
 -30   0  21    0.29    1.18
  28   0 -21   -1.21    0.74
 -28   0  21   -1.16    1.06
 -26   0  21    0.18    1.13
  26   0 -21   -0.20    0.76
  24   0 -21    0.18    0.76
 -24   0  21    0.54    1.10
  22   0 -21    0.29    0.71
 -22   0  21    0.58    1.13
 -20   0  21   -1.07    0.68
  20   0 -21   -0.63    0.60
 -20   0  21    0.19    1.16
 -18   0  21   -1.14    1.01
 -18   0  21    0.10    0.63
 -16   0  21   -0.47    0.70
 -16   0  21   -1.48    1.03
 -14   0  21   -1.49    1.15
 -14   0  21    0.27    1.28
 -12   0  21    0.25    1.39
 -12   0  21    1.55    1.75
 -10   0  21    1.52    1.58
 -10   0  21   -0.66    1.32
  -8   0  21   -0.86    1.51
  -8   0  21    0.58    1.49
  -6   0  21    1.39    1.62
  -6   0  21    0.02    1.51
  -4   0  21    1.50    1.61
  -4   0  21    2.91    1.83
  -2   0  21    0.32    1.54
  -2   0  21    2.66    1.96
   0   0  21    1.78    1.86
   2   0  21    3.84    2.04
   4   0  21    0.18    1.83
 -45  -1  21    0.47    1.85
  45  -1 -21    2.78    1.79
  45   1 -21   -2.79    1.45
  43  -1 -21   44.61    3.87
 -43  -1  21   41.28    3.92
  43   1 -21   47.84    4.09
 -43   1  21   43.37    3.59
 -41  -1  21    2.40    1.78
  41  -1 -21    2.94    1.56
 -41   1  21    4.01    1.71
  41   1 -21    5.68    1.93
  39  -1 -21   82.16    4.27
 -39  -1  21   71.51    4.41
  39   1 -21   79.92    4.39
 -39   1  21   67.33    3.90
  37  -1 -21    0.13    1.26
 -37  -1  21    1.51    1.52
  37   1 -21    1.88    1.31
 -37   1  21    2.51    1.36
 -35  -1  21   44.06    3.57
  35  -1 -21   45.29    2.99
 -35   1  21   43.80    2.99
  35   1 -21   43.46    3.12
 -33  -1  21   51.95    3.63
  33  -1 -21   61.95    3.27
  33   1 -21   63.82    3.53
 -33   1  21   59.69    3.34
 -31  -1  21   -0.61    1.26
  31  -1 -21    2.01    1.03
  31   1 -21    2.15    1.15
 -31   1  21    0.58    1.08
 -29  -1  21   75.57    4.09
  29  -1 -21   82.65    3.45
 -29   1  21   82.14    3.77
  29   1 -21   82.77    3.71
  27  -1 -21    2.14    0.88
 -27  -1  21    0.27    1.25
  27   1 -21    2.31    1.05
 -27   1  21    2.81    1.18
 -25  -1  21   98.07    4.49
  25  -1 -21   95.64    3.50
  25   1 -21   98.15    3.89
 -25   1  21   94.86    4.06
  23  -1 -21    5.65    0.97
 -23  -1  21    6.06    1.67
 -23   1  21    6.46    1.46
  23   1 -21    5.31    1.14
 -21  -1  21   70.53    3.85
  21  -1 -21   71.33    2.63
 -21   1  21   73.78    3.57
 -21   1  21   72.35    2.68
  21   1 -21   63.27    3.03
 -19  -1  21   31.39    3.01
 -19   1  21   27.29    2.53
 -19   1  21   32.31    1.71
 -17  -1  21   12.92    2.07
 -17   1  21   20.71    2.26
 -17   1  21   21.75    2.27
 -15  -1  21   20.06    2.65
 -15   1  21   15.14    2.05
 -15   1  21   13.97    2.07
 -13  -1  21   84.31    4.60
 -13   1  21   91.92    4.39
 -13   1  21   85.75    4.40
 -11  -1  21   62.26    3.84
 -11  -1  21   61.81    4.03
 -11   1  21   59.34    3.67
 -11   1  21   62.18    3.79
  -9  -1  21   37.83    3.58
  -9  -1  21   41.05    3.61
  -9   1  21   41.05    3.53
  -9   1  21   46.93    3.48
  -7  -1  21   36.63    3.52
  -7  -1  21   32.76    3.39
  -7   1  21   45.38    3.34
  -7   1  21   41.22    3.61
  -5  -1  21    2.70    1.94
  -5  -1  21    4.49    2.10
  -5   1  21    1.95    1.54
  -5   1  21    2.08    1.60
  -3  -1  21   42.59    4.22
  -3  -1  21   40.94    4.04
  -3   1  21   33.36    3.50
  -1  -1  21   -5.70    1.44
  -1  -1  21   -2.69    1.62
  -1   1  21    0.25    1.72
   1  -1  21   60.43    5.09
   1   1  21   68.20    4.89
   3  -1  21   10.48    2.88
   3   1  21   14.89    2.93
  44  -2 -21    0.57    1.47
 -44  -2  21    2.69    2.19
  44   2 -21    1.81    1.62
  42  -2 -21    6.95    1.84
 -42  -2  21    8.10    2.31
  42   2 -21    6.90    2.08
  40  -2 -21   15.63    2.28
 -40  -2  21   16.57    2.81
  40   2 -21   13.14    2.37
  38  -2 -21    4.48    1.51
 -38  -2  21    6.22    2.01
  38   2 -21    2.92    1.56
 -38   2  21    5.47    1.52
 -36  -2  21    1.56    1.64
  36  -2 -21    1.24    1.15
 -36   2  21   -0.26    1.08
  36   2 -21    2.24    1.43
  34  -2 -21    3.53    1.20
 -34  -2  21    1.55    1.61
 -34   2  21    0.69    1.10
  34   2 -21   -0.42    1.11
 -32  -2  21    0.15    1.40
  32  -2 -21   -0.48    0.89
  32   2 -21   -0.10    1.10
 -32   2  21   -0.61    1.03
  30  -2 -21   34.24    2.25
 -30  -2  21   36.00    3.20
  30   2 -21   38.42    2.73
 -30   2  21   31.27    2.34
 -28  -2  21   18.11    2.39
  28  -2 -21   24.02    1.80
 -28   2  21   21.75    1.98
  28   2 -21   23.33    2.26
  26  -2 -21   29.82    1.79
 -26  -2  21   25.98    2.75
 -26   2  21   31.48    2.29
  26   2 -21   26.13    2.31
 -24  -2  21    0.20    1.31
  24  -2 -21    0.29    0.59
  24   2 -21    1.13    0.96
 -24   2  21   -0.70    0.92
 -24   2  21   -0.30    0.82
 -22  -2  21   23.95    2.73
  22  -2 -21   18.58    1.23
 -22   2  21   18.37    1.85
  22   2 -21   20.08    1.92
 -22   2  21   16.74    1.85
 -20  -2  21    5.36    1.69
  20   2 -21    7.24    1.28
 -20   2  21    8.30    1.47
 -20   2  21    7.82    1.39
 -18  -2  21    2.08    1.48
 -18   2  21    0.51    1.00
 -18   2  21   -1.21    0.92
 -16  -2  21   10.89    2.08
 -16   2  21    7.71    1.65
 -16   2  21    7.98    1.58
 -14  -2  21    7.19    1.91
 -14   2  21   12.28    1.85
 -14   2  21   10.76    1.84
 -12  -2  21    3.96    1.69
 -12   2  21    3.90    1.46
 -12   2  21    1.65    1.26
 -10  -2  21   -0.73    1.47
 -10   2  21    0.50    1.35
 -10   2  21    0.08    1.31
  -8  -2  21    4.90    1.97
  -8  -2  21    5.44    2.01
  -8   2  21    4.16    1.62
  -8   2  21    2.13    1.40
  -6  -2  21    3.74    1.94
  -6  -2  21    4.26    1.91
  -6   2  21    1.27    1.53
  -4  -2  21    5.35    2.20
  -4  -2  21    7.43    2.36
  -4   2  21    9.63    2.19
  -2  -2  21    0.46    1.78
  -2  -2  21    0.34    1.83
  -2   2  21    0.17    1.53
   0  -2  21   -1.80    1.64
   0  -2  21   -0.70    2.01
   0   2  21   -0.36    1.47
   2  -2  21    2.05    2.13
   2  -2  21    2.21    2.19
   2   2  21    3.16    2.09
  43  -3 -21   29.27    3.18
 -43  -3  21   24.65    3.46
  43   3 -21   32.83    3.55
 -41  -3  21    5.00    2.17
  41  -3 -21    3.08    1.65
  41   3 -21    6.87    2.08
  39  -3 -21   18.29    2.27
 -39  -3  21   14.46    2.71
  39   3 -21   13.55    2.36
 -37  -3  21   16.13    2.62
  37  -3 -21   16.63    2.12
  37   3 -21   17.46    2.50
 -35  -3  21   24.48    2.97
  35  -3 -21   27.09    2.42
  35   3 -21   23.28    2.69
 -33  -3  21   31.23    3.28
  33  -3 -21   32.17    2.50
 -33   3  21   34.95    2.18
  33   3 -21   32.81    3.04
 -31  -3  21    9.39    2.05
  31  -3 -21   12.36    1.53
  31   3 -21    7.79    1.68
 -31   3  21   12.79    1.46
  29  -3 -21    5.18    1.06
 -29  -3  21    4.06    1.79
 -29   3  21    4.63    1.11
  29   3 -21    3.23    1.32
  27  -3 -21   11.56    1.24
 -27  -3  21   13.55    2.36
 -27   3  21   14.29    1.21
  27   3 -21   11.54    1.77
 -27   3  21   12.30    1.45
 -25  -3  21   48.50    3.62
  25  -3 -21   47.11    1.96
  25   3 -21   44.41    2.91
 -25   3  21   51.75    2.26
 -25   3  21   47.75    2.49
  23  -3 -21    4.64    0.65
 -23  -3  21   -0.35    1.58
 -23   3  21    4.17    1.04
  23   3 -21    2.84    1.21
 -23   3  21    5.44    1.23
 -21  -3  21   77.05    4.43
 -21   3  21   75.40    3.21
 -21   3  21   80.30    3.39
  21   3 -21   74.23    3.61
 -19  -3  21   -1.63    1.34
 -19   3  21    1.41    1.04
 -19   3  21    1.59    1.04
  19   3 -21    3.05    1.15
 -17  -3  21   39.60    3.59
 -17   3  21   44.55    2.70
 -17   3  21   44.02    2.76
 -15  -3  21    8.88    2.15
 -15   3  21   11.41    1.76
 -15   3  21    8.86    1.59
 -13  -3  21   52.18    3.93
 -13   3  21   52.26    3.18
 -13   3  21   54.07    3.28
 -11  -3  21   31.90    3.38
 -11   3  21   27.87    2.66
  -9  -3  21   16.50    2.81
  -9   3  21   12.04    2.13
  -7  -3  21   26.33    3.45
  -7   3  21   21.55    2.57
  -5  -3  21   -1.04    1.76
  -5  -3  21    1.35    1.95
  -5   3  21   -0.07    1.39
  -3  -3  21   33.80    3.77
  -3  -3  21   39.21    4.13
  -3   3  21   27.14    3.07
  -1  -3  21    1.14    2.05
  -1  -3  21    0.17    1.91
  -1   3  21    0.16    1.63
   1  -3  21   36.81    4.19
   1  -3  21   43.63    4.58
   1   3  21   37.22    3.95
   3  -3  21   11.95    2.93
   3  -3  21   16.38    3.36
   3   3  21   14.46    2.82
 -42  -4  21    0.88    2.08
  42  -4 -21    0.51    1.33
  42   4 -21    1.48    1.76
 -40  -4  21    1.88    2.16
  40  -4 -21    4.88    1.55
  40   4 -21    7.82    2.18
  38  -4 -21    5.24    1.50
 -38  -4  21    4.31    2.04
  38   4 -21    2.55    1.71
 -36  -4  21    5.76    2.16
  36  -4 -21    3.20    1.34
  36   4 -21    3.23    1.62
  34  -4 -21   -1.21    0.85
 -34  -4  21    2.07    1.80
  34   4 -21    4.48    1.60
 -32  -4  21    2.44    1.80
  32  -4 -21    4.28    1.13
  32   4 -21    3.70    1.61
 -30  -4  21   -1.25    1.43
  30  -4 -21   -0.30    0.76
  30   4 -21    2.49    1.38
  28  -4 -21   -0.19    0.62
 -28  -4  21    0.33    1.56
  28   4 -21    0.33    1.11
 -26  -4  21    2.75    1.70
 -26   4  21    2.53    0.86
  26   4 -21    2.20    1.24
 -24  -4  21    0.33    1.62
  24   4 -21    0.81    1.26
 -24   4  21    0.88    0.69
 -24   4  21    0.57    0.79
 -22  -4  21   11.93    2.28
 -22   4  21   18.20    1.52
 -22   4  21   18.77    1.65
  22   4 -21   16.88    2.03
 -20  -4  21   21.56    2.89
 -20   4  21   16.20    1.60
  20   4 -21   13.28    1.90
 -20   4  21   17.06    1.68
 -18  -4  21    0.64    1.67
 -18   4  21    0.77    0.94
 -16  -4  21   -2.02    1.33
 -16   4  21   -0.06    0.94
 -14  -4  21    4.28    1.89
 -14   4  21    4.26    1.32
 -12  -4  21    0.45    1.65
 -12   4  21   -0.99    1.04
 -10  -4  21    1.75    1.91
 -10   4  21    4.18    1.45
  -8  -4  21    3.04    1.99
  -8   4  21    1.74    1.47
  -6  -4  21   17.48    3.01
  -6   4  21   12.78    2.24
  -4  -4  21    3.69    2.24
  -4  -4  21    5.54    2.36
  -4   4  21    1.87    1.69
  -2  -4  21   -1.37    2.10
  -2  -4  21   -0.29    1.89
  -2   4  21   -0.85    1.58
   0  -4  21   -0.83    2.03
   0  -4  21    0.25    2.19
   0   4  21    0.19    1.60
   2  -4  21    0.17    2.11
   2  -4  21   -2.38    2.13
   2   4  21    2.72    2.12
 -41  -5  21    3.77    2.56
  41  -5 -21    0.94    1.37
  41   5 -21   -1.85    1.67
  39  -5 -21   12.43    2.00
 -39  -5  21    9.09    2.61
  39   5 -21   11.64    2.50
 -37  -5  21   31.53    3.85
  37  -5 -21   22.42    2.42
  37   5 -21   25.46    3.22
 -35  -5  21   40.07    4.05
  35  -5 -21   40.23    2.69
  35   5 -21   38.56    3.58
  33  -5 -21   25.82    2.76
 -33  -5  21   28.15    3.42
  33   5 -21   27.74    3.03
 -31  -5  21   33.36    3.65
  31   5 -21   28.63    2.99
 -29  -5  21   56.87    4.37
  29   5 -21   47.52    3.50
 -27  -5  21    1.07    1.67
  27   5 -21   -0.18    1.22
 -25  -5  21   59.48    4.32
  25   5 -21   58.26    3.70
 -23  -5  21   13.28    2.54
  23   5 -21   16.08    2.31
 -21  -5  21   65.37    4.47
 -21   5  21   65.61    2.71
  21   5 -21   62.75    3.73
 -19  -5  21   13.62    2.69
 -19   5  21   14.69    1.62
 -17  -5  21   57.35    4.30
 -17   5  21   57.98    2.94
 -15  -5  21    6.64    2.24
 -15   5  21    4.90    1.32
 -13  -5  21    8.14    2.36
 -13   5  21    8.97    1.67
 -11  -5  21   23.35    3.11
 -11   5  21   31.86    2.77
  -9  -5  21    1.57    1.83
  -9   5  21    3.97    1.54
  -7  -5  21   67.44    5.03
  -7   5  21   67.16    4.05
  -5  -5  21   15.28    2.98
  -5   5  21   16.74    2.51
  -3  -5  21   26.89    3.91
  -3  -5  21   25.27    3.52
  -3   5  21   23.20    2.99
  -1  -5  21    2.63    2.22
  -1  -5  21    3.03    2.28
  -1   5  21    2.01    1.83
 -40  -6  21    3.25    2.50
  40   6 -21    0.50    1.89
 -38  -6  21   -0.43    2.13
  38   6 -21    0.55    1.69
 -36  -6  21    6.25    2.55
  36   6 -21    2.16    1.80
 -34  -6  21    0.92    2.15
  34   6 -21    3.42    1.88
 -32  -6  21   21.85    3.37
  32   6 -21   16.05    2.53
 -30  -6  21    7.77    2.47
  30   6 -21    4.71    1.86
 -28  -6  21   10.32    2.49
  28   6 -21    8.45    2.03
 -26  -6  21   12.32    2.61
  26   6 -21    9.45    1.98
 -24  -6  21    7.88    2.28
  24   6 -21    3.08    1.48
 -22  -6  21    3.11    1.95
  22   6 -21    4.11    1.62
 -20  -6  21    3.64    2.01
  20   6 -21    3.97    1.55
 -18  -6  21    3.56    1.95
 -18   6  21    2.28    0.98
 -16  -6  21    2.14    1.81
 -16   6  21   -0.57    0.95
 -14  -6  21   -0.06    1.93
 -14   6  21    1.29    1.09
 -12  -6  21    6.10    2.27
 -12   6  21    7.25    1.59
 -10  -6  21    2.97    2.29
 -10   6  21   -1.70    1.09
  -8  -6  21   -0.14    1.90
  -8   6  21    1.90    1.46
  -6  -6  21   10.08    2.70
  -6   6  21    7.04    1.92
  -4  -6  21    2.46    2.36
  -4   6  21    1.88    1.64
  -2  -6  21    4.67    2.49
  -2  -6  21    7.03    2.70
  -2   6  21    4.29    2.04
 -37  -7  21   19.19    3.57
  37   7 -21   12.87    2.67
 -35  -7  21   -1.26    2.09
  35   7 -21   -1.38    1.75
 -33  -7  21   22.55    3.57
  33   7 -21   25.57    3.29
 -31  -7  21    6.86    2.39
  31   7 -21    6.44    2.01
 -29  -7  21   21.85    3.33
  29   7 -21   24.33    3.12
 -27  -7  21   -0.31    1.98
  27   7 -21   -0.27    1.54
 -25  -7  21   30.92    3.85
  25   7 -21   32.75    3.45
 -23  -7  21    4.45    2.35
  23   7 -21    4.11    1.77
 -21  -7  21   38.13    4.07
  21   7 -21   42.64    3.75
 -19  -7  21    6.42    2.39
 -17  -7  21   44.29    4.29
 -15  -7  21   44.68    4.30
 -15   7  21   46.00    2.89
 -13  -7  21   12.45    2.84
 -13   7  21   13.05    1.96
 -11  -7  21   29.65    3.90
 -11   7  21   33.54    3.04
  -9  -7  21   15.21    3.17
  -9   7  21   16.88    2.48
  -7  -7  21   13.22    2.94
  -7   7  21   20.77    2.77
  -5  -7  21   10.92    2.93
  -5   7  21    6.40    2.09
  -3  -7  21   23.98    3.68
  -3   7  21   23.12    3.22
 -34  -8  21    4.46    2.60
  34   8 -21    1.25    1.91
 -32  -8  21    5.69    2.63
  32   8 -21    3.31    2.17
 -30  -8  21    3.69    2.49
  30   8 -21   -0.38    1.68
 -28  -8  21   -0.70    1.99
  28   8 -21    5.04    2.05
 -26  -8  21   -1.19    1.96
  26   8 -21    0.10    1.53
 -24  -8  21    0.21    1.98
  24   8 -21   -0.99    1.41
 -22  -8  21    3.65    2.38
  22   8 -21    4.19    1.92
 -20  -8  21    8.73    2.65
 -18  -8  21    7.36    2.56
 -16  -8  21    4.09    2.23
 -14  -8  21    3.47    2.26
 -12  -8  21    3.08    2.29
 -10  -8  21   -0.54    2.26
 -10   8  21   -1.46    1.32
  -8  -8  21    1.76    2.19
  -8   8  21    1.43    1.63
  -6  -8  21    4.40    2.63
  -6   8  21    1.65    1.76
 -31  -9  21   11.71    3.25
  31   9 -21   12.04    2.88
 -29  -9  21   50.93    4.95
  29   9 -21   45.06    4.51
 -27  -9  21   -0.20    2.12
  27   9 -21    1.02    1.99
 -25  -9  21   21.23    3.72
  25   9 -21   18.52    2.97
 -23  -9  21    0.96    2.28
  23   9 -21    2.29    1.98
 -21  -9  21   10.90    3.00
 -19  -9  21   -0.64    2.19
 -17  -9  21   54.04    5.27
 -15  -9  21   11.82    3.02
 -13  -9  21   19.62    3.42
 -11  -9  21    3.05    2.40
 -44   0  22   14.05    2.55
  44   0 -22   12.90    2.51
 -42   0  22   27.08    2.95
  42   0 -22   28.38    3.10
 -40   0  22   10.09    2.13
  40   0 -22   11.68    2.18
 -38   0  22   53.09    3.69
  38   0 -22   54.52    3.57
 -36   0  22   22.22    2.53
  36   0 -22   26.30    2.61
  34   0 -22    1.26    1.14
 -34   0  22   -1.48    1.26
 -32   0  22   64.61    3.72
  32   0 -22   68.46    3.44
  30   0 -22    4.50    1.19
 -30   0  22    1.43    1.33
 -28   0  22  210.99    7.13
  28   0 -22  208.96    6.49
  26   0 -22   14.69    1.58
 -26   0  22   10.87    1.94
 -24   0  22  230.18    7.48
  24   0 -22  214.29    6.47
  22   0 -22   21.22    1.72
 -22   0  22   22.18    2.46
 -20   0  22    1.31    1.36
 -18   0  22   48.57    3.42
 -16   0  22    9.75    1.94
 -14   0  22  113.67    5.19
 -14   0  22  120.03    5.38
 -12   0  22    0.57    1.70
 -12   0  22    0.02    1.45
 -10   0  22   58.19    3.88
 -10   0  22   56.59    3.97
  -8   0  22    1.23    1.53
  -8   0  22    0.11    1.55
  -6   0  22   19.64    2.84
  -6   0  22   17.20    2.68
  -4   0  22    1.37    1.81
  -4   0  22    1.03    1.62
  -2   0  22   53.22    4.62
   0   0  22   48.69    4.62
   2   0  22   21.02    3.46
 -45  -1  22    3.00    2.05
  45  -1 -22    0.09    1.50
  45   1 -22    1.16    1.73
  43  -1 -22    5.80    1.86
 -43  -1  22    0.46    1.98
  43   1 -22    2.48    1.69
 -41  -1  22    0.76    1.64
  41  -1 -22    1.52    1.50
  41   1 -22    1.23    1.46
 -41   1  22   -0.42    1.41
  39  -1 -22    0.84    1.29
 -39  -1  22   -0.97    1.57
 -39   1  22   -0.11    1.37
  39   1 -22    1.10    1.49
 -37  -1  22   -0.20    1.49
  37  -1 -22    2.75    1.32
  37   1 -22    1.25    1.27
 -37   1  22    1.85    1.33
 -35  -1  22    1.19    1.51
  35  -1 -22    1.03    1.07
 -35   1  22    1.51    1.30
  35   1 -22    2.44    1.31
 -33  -1  22    1.77    1.47
  33  -1 -22    1.06    1.00
  33   1 -22    0.43    1.10
 -33   1  22    0.52    1.20
  31  -1 -22    1.65    1.01
 -31  -1  22    0.98    1.37
  31   1 -22    2.26    1.14
 -31   1  22    1.23    1.26
  29  -1 -22    0.17    0.82
 -29  -1  22    0.20    1.32
 -29   1  22   -0.73    1.04
  29   1 -22    0.25    0.89
  27  -1 -22   22.99    1.85
 -27  -1  22   25.19    2.67
 -27   1  22   24.34    2.31
  27   1 -22   22.91    2.10
  25  -1 -22    2.15    0.77
 -25  -1  22   -1.28    1.33
 -25   1  22   -0.74    1.18
  25   1 -22   -0.71    0.77
  23  -1 -22    5.15    0.93
 -23  -1  22    6.96    1.81
  23   1 -22    6.28    1.23
 -23   1  22    5.87    1.61
 -21  -1  22    6.55    1.74
 -21   1  22    7.99    1.67
  21   1 -22    6.52    1.18
 -19  -1  22    1.18    1.48
 -19   1  22   -0.29    1.18
 -19   1  22    1.92    1.53
 -17  -1  22   25.74    2.86
 -17   1  22   33.17    2.99
 -17   1  22   30.24    2.76
 -15  -1  22    1.04    1.42
 -15   1  22    3.05    1.42
 -15   1  22    0.68    1.33
 -13  -1  22    3.79    1.79
 -13   1  22    3.56    1.52
 -13   1  22    2.25    1.40
 -11  -1  22    2.74    1.72
 -11  -1  22    2.61    1.84
 -11   1  22    3.78    1.67
 -11   1  22    5.23    1.85
  -9  -1  22    1.58    1.70
  -9  -1  22    2.52    1.82
  -9   1  22    0.69    1.50
  -9   1  22    1.47    1.54
  -7  -1  22   -1.30    1.32
  -7  -1  22   -0.09    1.62
  -7   1  22   -1.35    1.40
  -7   1  22   -2.49    1.26
  -5  -1  22    1.62    1.89
  -5  -1  22    0.81    1.81
  -5   1  22    4.25    1.96
  -3  -1  22    6.95    2.35
  -3  -1  22    3.00    1.99
  -3   1  22    5.27    2.13
  -1  -1  22    0.74    1.86
  -1  -1  22    2.93    2.08
  -1   1  22    2.80    1.95
   1  -1  22    1.45    2.15
   1   1  22    3.75    2.25
 -44  -2  22   15.82    2.92
  44  -2 -22   11.16    2.29
  44   2 -22   16.26    2.88
  42  -2 -22   17.12    2.47
 -42  -2  22   13.93    2.70
  42   2 -22   17.34    2.68
 -40  -2  22   13.34    2.48
  40  -2 -22   13.41    2.12
  40   2 -22   12.57    2.32
  38  -2 -22   32.25    2.82
 -38  -2  22   30.48    3.27
  38   2 -22   27.96    3.01
 -38   2  22   33.81    3.10
 -36  -2  22   42.38    3.74
  36  -2 -22   43.19    2.94
 -36   2  22   45.85    2.88
  36   2 -22   45.39    3.30
  34  -2 -22    7.16    1.49
 -34  -2  22    5.30    1.83
  34   2 -22    5.64    1.55
 -34   2  22    4.86    1.37
 -32  -2  22   52.13    3.82
  32  -2 -22   53.32    2.85
  32   2 -22   60.85    3.53
 -32   2  22   52.40    2.97
 -30  -2  22    0.80    1.50
  30  -2 -22    2.37    0.91
  30   2 -22    2.02    1.21
 -30   2  22    0.54    1.14
 -28  -2  22   75.30    4.31
  28  -2 -22   78.33    3.07
  28   2 -22   75.36    3.72
 -28   2  22   75.25    3.47
 -26  -2  22    8.06    1.92
  26  -2 -22    8.33    1.10
 -26   2  22   10.86    1.62
 -26   2  22    9.22    1.31
  26   2 -22    8.89    1.55
  24  -2 -22   31.58    1.68
 -24  -2  22   34.67    3.25
 -24   2  22   35.25    2.39
 -24   2  22   34.54    2.46
  24   2 -22   33.69    2.42
 -22  -2  22   16.20    2.40
  22   2 -22   19.83    2.03
 -22   2  22   17.33    1.94
 -22   2  22   15.36    1.91
 -20  -2  22   10.78    2.10
 -20   2  22   12.34    1.70
 -20   2  22   11.39    1.81
 -18  -2  22   24.18    2.82
 -18   2  22   30.72    2.72
 -18   2  22   36.68    2.56
 -16  -2  22   20.54    2.69
 -16   2  22   32.68    2.91
 -16   2  22   26.11    2.49
 -14  -2  22   15.46    2.57
 -14   2  22   10.47    1.89
 -14   2  22   10.26    1.91
 -12  -2  22   18.55    2.85
 -12   2  22   24.55    2.71
 -12   2  22   21.62    2.57
 -10  -2  22   26.60    3.19
 -10  -2  22   24.26    2.97
 -10   2  22   21.25    2.60
 -10   2  22   24.33    2.82
  -8  -2  22    6.47    2.18
  -8  -2  22    3.84    2.04
  -8   2  22    2.42    1.50
  -6  -2  22   18.58    2.89
  -6  -2  22   16.67    2.91
  -6   2  22   17.52    2.65
  -4  -2  22    3.20    2.15
  -4  -2  22    3.34    2.00
  -4   2  22    4.26    2.01
  -2  -2  22   40.89    4.20
  -2  -2  22   39.77    4.11
  -2   2  22   34.83    3.78
   0  -2  22    8.19    2.66
   0  -2  22    9.42    2.65
   0   2  22    8.81    2.32
  43  -3 -22    3.17    1.62
 -43  -3  22    2.50    2.19
  43   3 -22    2.63    1.85
  41  -3 -22    1.67    1.34
 -41  -3  22   -1.21    1.79
  41   3 -22    0.42    1.58
 -39  -3  22   -1.82    1.57
  39  -3 -22   -1.72    1.05
  39   3 -22   -0.46    1.39
 -37  -3  22   -0.01    1.68
  37  -3 -22   -0.18    0.99
  37   3 -22    0.41    1.35
 -35  -3  22    2.32    1.85
  35  -3 -22    2.20    1.14
  35   3 -22    3.19    1.57
  33  -3 -22   -0.07    0.88
 -33  -3  22   -1.23    1.48
  33   3 -22   -0.57    1.14
  31  -3 -22   13.22    1.55
 -31  -3  22   14.24    2.47
 -31   3  22   14.17    1.60
  31   3 -22    9.60    1.84
 -29  -3  22   33.79    3.27
  29  -3 -22   38.90    2.06
  29   3 -22   38.62    3.11
 -29   3  22   35.53    2.25
 -27  -3  22    0.86    1.48
  27  -3 -22    0.58    0.62
 -27   3  22    0.15    0.77
 -27   3  22    1.31    0.97
  27   3 -22    0.49    1.03
 -25  -3  22    3.14    1.71
 -25   3  22    1.41    1.02
 -25   3  22    0.57    0.85
  25   3 -22    2.23    1.26
 -23  -3  22    1.43    1.58
 -23   3  22    1.04    0.94
  23   3 -22    2.36    1.18
 -23   3  22    2.85    1.10
 -21  -3  22   10.55    2.32
 -21   3  22    5.08    1.29
 -21   3  22    8.85    1.41
  21   3 -22    6.93    1.41
 -19  -3  22   -0.71    1.51
 -19   3  22    1.70    1.07
 -19   3  22    2.52    1.18
 -17  -3  22    0.38    1.55
 -17   3  22    1.12    1.07
 -17   3  22   -1.64    0.96
 -15  -3  22   35.12    3.65
 -15   3  22   26.88    2.53
 -15   3  22   31.19    2.72
 -13  -3  22    2.81    1.78
 -13   3  22    3.17    1.43
 -13   3  22    4.66    1.47
 -11  -3  22    9.16    2.24
 -11   3  22    9.60    1.97
  -9  -3  22    9.94    2.36
  -9   3  22    9.88    1.96
  -7  -3  22   12.52    2.77
  -7  -3  22    5.19    2.26
  -7   3  22    6.70    1.95
  -5  -3  22   -3.40    1.87
  -5  -3  22   -2.11    1.73
  -5   3  22   -0.22    1.37
  -3  -3  22    0.88    1.89
  -3  -3  22   -3.60    1.79
  -3   3  22    0.74    1.72
  -1  -3  22    1.57    2.33
  -1  -3  22   -0.01    2.07
  -1   3  22   -0.62    1.45
   1  -3  22   -0.10    2.02
   1  -3  22    1.99    2.17
   1   3  22    0.83    1.88
 -42  -4  22   17.11    3.13
  42  -4 -22   19.72    2.53
  42   4 -22   21.43    3.08
  40  -4 -22   15.99    2.20
 -40  -4  22   11.29    2.70
  40   4 -22   17.66    2.76
  38  -4 -22    7.58    1.60
 -38  -4  22    9.68    2.66
  38   4 -22    9.20    2.17
 -36  -4  22   87.40    5.25
  36  -4 -22   81.74    3.84
  36   4 -22   76.70    4.57
  34  -4 -22    3.39    1.14
 -34  -4  22    3.10    1.87
  34   4 -22    2.57    1.57
 -32  -4  22   68.79    4.49
  32  -4 -22   63.31    3.20
  32   4 -22   58.79    3.86
 -30  -4  22    0.00    1.49
  30   4 -22   -1.44    1.08
 -28  -4  22   11.68    2.33
  28   4 -22   13.63    1.99
 -26  -4  22   13.06    2.46
  26   4 -22   15.28    2.07
 -26   4  22   12.27    1.53
 -24  -4  22   74.15    4.60
 -24   4  22   64.31    2.63
  24   4 -22   60.15    3.63
 -24   4  22   66.95    2.84
 -22  -4  22   63.95    4.28
  22   4 -22   53.27    3.30
 -22   4  22   50.25    2.61
 -22   4  22   52.98    2.59
 -20  -4  22   34.23    3.50
 -20   4  22   35.38    2.28
 -20   4  22   34.81    2.31
 -18  -4  22    7.88    2.30
 -18   4  22   10.38    1.54
 -16  -4  22   11.71    2.36
 -16   4  22   14.07    1.79
 -14  -4  22   57.28    4.23
 -14   4  22   44.60    2.96
 -12  -4  22   -0.34    1.75
 -12   4  22    0.25    1.17
 -10  -4  22   69.56    4.89
 -10   4  22   61.78    3.81
  -8  -4  22    0.50    2.00
  -8   4  22    2.14    1.50
  -6  -4  22   25.54    3.51
  -6  -4  22   29.01    3.57
  -6   4  22   27.61    3.09
  -4  -4  22    1.01    2.07
  -4  -4  22   -3.37    1.83
  -4   4  22    3.24    1.92
  -2  -4  22   18.57    3.49
  -2  -4  22   18.25    3.60
  -2   4  22   16.71    2.83
   0  -4  22   16.77    3.36
   0  -4  22   21.45    3.65
   0   4  22   22.17    3.29
 -41  -5  22    2.38    2.36
  41   5 -22    0.18    1.73
 -39  -5  22    1.26    2.10
  39   5 -22    0.70    1.64
 -37  -5  22    1.40    2.06
  37   5 -22    2.80    1.79
 -35  -5  22    1.69    1.92
  35   5 -22    0.02    1.54
 -33  -5  22    5.77    2.22
  33   5 -22    4.51    1.73
 -31  -5  22    1.05    1.83
  31   5 -22    0.71    1.34
 -29  -5  22    0.13    1.71
  29   5 -22   -0.77    1.22
 -27  -5  22    8.19    2.23
  27   5 -22    9.83    1.96
 -25  -5  22    1.33    1.74
  25   5 -22    0.13    1.19
 -23  -5  22    0.63    1.83
  23   5 -22    4.15    1.44
 -21  -5  22    1.03    1.86
  21   5 -22    1.88    1.30
 -21   5  22    1.13    0.93
 -19  -5  22    0.02    1.73
 -19   5  22   -0.71    0.87
 -17  -5  22   11.50    2.44
 -17   5  22   15.96    1.89
 -15  -5  22    1.39    1.73
 -15   5  22    2.20    1.25
 -13  -5  22    1.06    1.74
 -13   5  22   -0.54    1.11
 -11  -5  22    3.71    2.18
 -11   5  22    3.80    1.53
  -9  -5  22    4.84    2.35
  -9   5  22    2.09    1.42
  -7  -5  22    4.48    2.46
  -7   5  22    5.96    1.91
  -5  -5  22    0.83    2.00
  -5   5  22    5.61    2.07
  -3  -5  22    7.07    2.80
  -3  -5  22    2.60    2.35
  -3   5  22    8.11    2.33
 -40  -6  22    7.22    2.74
  40   6 -22   15.48    2.85
 -38  -6  22    3.84    2.41
  38   6 -22    0.51    1.66
 -36  -6  22   38.28    4.33
  36   6 -22   38.63    3.86
 -34  -6  22    4.14    2.34
  34   6 -22    8.13    2.24
 -32  -6  22   38.80    3.96
  32   6 -22   41.73    3.93
 -30  -6  22    3.60    2.13
  30   6 -22    1.37    1.51
 -28  -6  22   37.45    3.95
  28   6 -22   30.30    3.16
 -26  -6  22   12.32    2.62
  26   6 -22   22.54    2.67
 -24  -6  22   28.36    3.44
  24   6 -22   20.91    2.61
 -22  -6  22   27.33    3.59
  22   6 -22   37.80    3.40
 -20  -6  22   86.90    5.38
 -18  -6  22   39.32    3.91
 -18   6  22   38.90    2.50
 -16  -6  22   22.90    3.27
 -16   6  22   23.95    2.29
 -14  -6  22   27.24    3.76
 -14   6  22   17.26    2.14
 -12  -6  22    3.09    2.27
 -12   6  22    1.58    1.36
 -10  -6  22   66.50    5.03
 -10   6  22   55.13    3.65
  -8  -6  22   -1.39    1.95
  -8   6  22    0.29    1.41
  -6  -6  22   58.21    5.31
  -6   6  22   50.69    4.17
  -4  -6  22    2.38    2.49
  -4   6  22   -0.13    1.59
 -37  -7  22   -0.22    2.26
  37   7 -22   -4.27    1.57
 -35  -7  22   10.87    3.04
  35   7 -22    3.82    1.98
 -33  -7  22    1.19    2.23
  33   7 -22    2.91    1.86
 -31  -7  22   15.76    3.00
  31   7 -22   17.34    2.71
 -29  -7  22    1.77    2.09
  29   7 -22    0.84    1.66
 -27  -7  22    0.77    1.92
  27   7 -22    2.31    1.69
 -25  -7  22   -0.90    2.00
  25   7 -22    1.25    1.47
 -23  -7  22   -0.66    2.05
  23   7 -22   -0.24    1.39
 -21  -7  22    3.45    2.30
 -19  -7  22   -0.71    2.00
 -17  -7  22   -0.64    1.85
 -15  -7  22   -0.67    2.04
 -13  -7  22   -0.98    1.85
 -13   7  22    2.13    1.51
 -11  -7  22    2.92    2.41
 -11   7  22    2.04    1.57
  -9  -7  22   -1.35    2.00
  -9   7  22   -0.12    1.47
  -7  -7  22    6.15    2.76
  -7   7  22    5.44    2.07
 -34  -8  22    1.32    2.26
  34   8 -22    1.15    1.98
 -32  -8  22   40.13    4.32
  32   8 -22   40.22    4.04
 -30  -8  22    5.27    2.59
  30   8 -22    0.67    1.77
 -28  -8  22   39.77    4.36
  28   8 -22   52.84    4.35
 -26  -8  22   -1.21    2.08
  26   8 -22   -0.69    1.66
 -24  -8  22   28.64    3.89
  24   8 -22   23.95    3.05
 -22  -8  22   -0.32    2.26
 -20  -8  22   16.93    3.39
 -18  -8  22   25.53    3.73
 -16  -8  22   11.60    2.84
 -14  -8  22   41.44    4.58
 -12  -8  22    6.76    2.68
 -10  -8  22    3.47    2.43
 -29  -9  22    1.64    2.19
  29   9 -22    2.02    1.96
 -27  -9  22    1.19    2.25
  27   9 -22    1.54    1.86
 -25  -9  22    1.18    2.19
  25   9 -22   -0.89    1.92
 -23  -9  22    7.96    2.81
 -21  -9  22    3.70    2.51
 -19  -9  22    5.66    2.69
 -17  -9  22   -1.55    2.01
 -15  -9  22    4.50    2.45
 -44   0  23   -0.23    1.68
  44   0 -23   -0.09    1.51
 -42   0  23    0.67    1.58
  42   0 -23   -0.80    1.28
 -40   0  23    0.11    1.50
  40   0 -23    0.35    1.32
  38   0 -23    0.85    1.29
 -38   0  23    0.55    1.48
  36   0 -23   -0.20    1.08
 -36   0  23   -0.52    1.36
 -34   0  23   -1.48    1.23
  34   0 -23   -0.66    1.00
 -32   0  23   -0.74    1.28
  32   0 -23    2.65    1.16
  30   0 -23   -0.68    0.84
 -30   0  23   -0.29    1.30
  28   0 -23    0.28    0.85
 -28   0  23   -0.52    1.31
 -26   0  23    1.74    1.37
  26   0 -23    0.49    0.80
  24   0 -23    0.39    0.75
 -24   0  23   -0.34    1.25
 -22   0  23   -0.58    1.22
 -20   0  23   -0.14    1.31
 -18   0  23   -1.06    1.21
 -16   0  23   -0.62    1.49
 -16   0  23    0.82    1.61
 -14   0  23    1.02    1.49
 -14   0  23   -0.69    1.43
 -12   0  23    0.52    1.43
 -12   0  23   -1.02    1.29
 -10   0  23    0.39    1.56
 -10   0  23    0.46    1.58
  -8   0  23   -1.86    1.73
  -8   0  23    0.30    1.73
  -6   0  23   -0.59    1.72
  -6   0  23    1.39    1.76
  -4   0  23    1.11    1.80
  -4   0  23    0.36    1.72
  -2   0  23    1.65    1.92
   0   0  23   -1.78    1.59
 -45  -1  23    6.26    2.16
  45  -1 -23    4.40    1.94
  45   1 -23    8.72    2.26
 -43  -1  23   20.69    3.02
  43  -1 -23   22.68    2.89
  43   1 -23   21.99    2.84
 -41  -1  23   28.01    3.17
  41  -1 -23   26.11    2.83
  41   1 -23   30.37    3.28
 -41   1  23   31.07    3.05
  39  -1 -23   43.30    3.23
 -39  -1  23   48.36    3.92
 -39   1  23   46.76    3.32
  39   1 -23   49.81    3.59
  37  -1 -23    7.44    1.63
 -37  -1  23    6.66    1.95
  37   1 -23    6.23    1.64
 -37   1  23    6.97    1.73
  35  -1 -23   68.39    3.57
 -35  -1  23   71.97    4.25
  35   1 -23   74.74    3.90
 -35   1  23   71.77    3.76
  33  -1 -23    0.87    0.99
 -33  -1  23    0.86    1.51
  33   1 -23    3.40    1.22
 -33   1  23    1.62    1.29
  31  -1 -23   74.49    3.41
 -31  -1  23   78.06    4.30
 -31   1  23   80.72    3.86
  31   1 -23   80.72    3.78
  29  -1 -23    2.71    0.96
 -29  -1  23    1.69    1.56
 -29   1  23    3.28    1.40
  29   1 -23    2.65    1.13
  27  -1 -23  104.57    3.76
 -27  -1  23  107.15    4.91
  27   1 -23  100.06    4.13
 -27   1  23  107.01    4.55
  25  -1 -23   23.45    1.66
 -25  -1  23   20.74    2.69
 -25   1  23   22.90    2.43
  25   1 -23   23.78    2.08
 -23  -1  23   13.41    2.24
 -23   1  23   13.08    1.93
  23   1 -23   13.59    1.60
 -21  -1  23   21.05    2.70
 -21   1  23   19.31    2.19
 -21   1  23   17.92    2.25
 -19  -1  23    2.03    1.48
 -19   1  23    3.32    1.50
 -19   1  23    1.17    1.47
 -17  -1  23   53.56    3.93
 -17   1  23   53.23    3.60
 -17   1  23   63.21    3.72
 -15  -1  23    0.71    1.52
 -15   1  23    0.00    1.22
 -15   1  23    0.29    1.28
 -13  -1  23  101.97    5.06
 -13  -1  23   95.70    5.07
 -13   1  23   89.17    4.63
 -13   1  23   89.91    4.77
 -11  -1  23    5.11    1.95
 -11  -1  23    7.01    2.25
 -11   1  23    2.84    1.71
 -11   1  23    5.11    1.85
  -9  -1  23    8.81    2.37
  -9  -1  23    9.47    2.38
  -9   1  23   10.13    2.23
  -9   1  23    8.38    2.14
  -7  -1  23   15.11    2.85
  -7  -1  23   12.53    2.68
  -7   1  23   11.09    2.38
  -7   1  23   14.08    2.56
  -5  -1  23   15.38    3.00
  -5  -1  23   12.52    2.63
  -5   1  23   11.32    2.42
  -3  -1  23   38.41    4.16
  -3  -1  23   34.06    4.00
  -3   1  23   37.51    3.97
  -1  -1  23   28.50    3.70
  -1   1  23   23.73    3.54
  44  -2 -23    0.70    1.52
 -44  -2  23    1.48    1.93
  44   2 -23   -0.96    1.49
 -42  -2  23    8.36    2.44
  42  -2 -23   14.25    2.31
  42   2 -23   17.03    2.65
  40  -2 -23   -0.54    1.19
 -40  -2  23    1.28    1.85
  40   2 -23    0.52    1.35
  38  -2 -23    3.41    1.29
 -38  -2  23    1.95    1.80
  38   2 -23    1.48    1.37
  36  -2 -23    4.52    1.35
 -36  -2  23    6.65    1.99
 -36   2  23    3.65    1.45
  36   2 -23    3.44    1.53
  34  -2 -23   -1.35    0.80
 -34  -2  23   -0.51    1.56
  34   2 -23   -0.21    1.13
 -34   2  23   -0.30    1.18
 -32  -2  23   12.00    2.21
  32  -2 -23   18.79    1.83
 -32   2  23   14.71    1.84
  32   2 -23   16.28    2.09
  30  -2 -23    0.18    0.81
 -30  -2  23   -0.38    1.43
  30   2 -23    0.32    1.12
 -30   2  23    0.78    1.10
  28  -2 -23   16.36    1.50
 -28  -2  23   13.60    2.31
  28   2 -23   15.33    1.88
 -28   2  23   15.92    1.91
 -28   2  23   16.04    1.66
  26  -2 -23    0.77    0.64
 -26  -2  23   -0.17    1.52
 -26   2  23    1.29    1.18
 -26   2  23    0.95    1.09
  26   2 -23    1.41    1.06
 -24  -2  23    3.39    1.65
  24   2 -23    3.61    1.20
 -24   2  23    5.46    1.42
 -24   2  23    3.73    1.34
 -22  -2  23   -0.23    1.47
 -22   2  23    1.34    1.18
 -22   2  23    1.02    1.18
  22   2 -23    0.31    0.93
 -20  -2  23    4.69    1.85
 -20   2  23    5.04    1.48
 -20   2  23    4.78    1.46
 -18  -2  23   13.10    2.33
 -18   2  23   14.52    2.13
 -18   2  23   12.89    1.94
 -16  -2  23    8.88    2.20
 -16   2  23   10.68    1.90
 -16   2  23    8.19    1.74
 -14  -2  23    0.28    1.60
 -14   2  23   -1.02    1.18
 -14   2  23   -1.06    1.21
 -12  -2  23    6.17    2.21
 -12   2  23    5.32    1.74
 -12   2  23    7.26    1.88
 -10  -2  23    3.58    1.94
 -10  -2  23    4.39    2.16
 -10   2  23    9.42    1.97
 -10   2  23    7.93    1.96
  -8  -2  23    1.77    2.21
  -8  -2  23   -0.63    1.92
  -8   2  23   -0.38    1.52
  -6  -2  23    1.05    1.74
  -6  -2  23    1.90    2.00
  -6   2  23    0.95    1.67
  -4  -2  23    4.65    2.33
  -4  -2  23    4.97    2.29
  -4   2  23    3.99    2.07
  -2  -2  23    1.28    2.21
  -2  -2  23    0.90    2.20
  -2   2  23    0.09    1.75
 -43  -3  23   13.42    2.76
  43  -3 -23   17.28    2.49
  43   3 -23   12.63    2.55
 -41  -3  23    2.67    2.07
  41  -3 -23    0.69    1.30
  41   3 -23    1.22    1.60
 -39  -3  23   29.60    3.45
  39  -3 -23   33.83    2.92
  39   3 -23   29.35    3.21
 -37  -3  23   -1.16    1.67
  37  -3 -23    3.46    1.29
  37   3 -23    0.08    1.35
 -35  -3  23   57.75    4.25
  35  -3 -23   55.16    3.03
  35   3 -23   51.41    3.60
 -33  -3  23    5.04    1.89
  33  -3 -23    3.81    1.12
  33   3 -23    2.82    1.45
 -31  -3  23   49.81    3.88
  31  -3 -23   44.84    2.54
 -31   3  23   41.63    2.84
  31   3 -23   45.00    3.17
 -29  -3  23    2.25    1.75
 -29   3  23    2.46    1.06
  29   3 -23    3.15    1.37
 -27  -3  23   57.93    4.00
 -27   3  23   50.93    2.77
  27   3 -23   57.96    3.38
 -27   3  23   51.43    2.46
 -25  -3  23   49.53    4.07
  25   3 -23   47.63    3.02
 -25   3  23   45.61    2.65
 -25   3  23   44.63    2.46
 -23  -3  23   23.45    2.91
 -23   3  23   20.32    2.05
 -23   3  23   23.08    1.99
  23   3 -23   23.25    2.23
 -21  -3  23   58.44    4.19
 -21   3  23   52.74    2.92
 -21   3  23   55.49    3.10
 -19  -3  23    7.89    2.18
 -19   3  23    5.65    1.36
 -19   3  23    8.99    1.67
 -17  -3  23   40.44    3.74
 -17   3  23   35.41    2.69
 -17   3  23   40.58    2.91
 -15  -3  23    4.33    1.89
 -15   3  23    7.03    1.62
 -15   3  23    3.29    1.47
 -13  -3  23   25.11    3.12
 -13   3  23   34.84    3.09
 -11  -3  23   10.00    2.50
 -11   3  23    8.01    1.92
  -9  -3  23   10.09    2.71
  -9  -3  23   16.02    3.03
  -9   3  23   10.62    2.22
  -7  -3  23   10.32    2.64
  -7  -3  23   11.57    2.68
  -7   3  23   10.65    2.15
  -5  -3  23   25.74    3.65
  -5  -3  23   29.52    3.68
  -5   3  23   30.91    3.53
  -3  -3  23   18.01    3.45
  -3  -3  23   25.24    3.73
  -3   3  23   22.92    3.09
 -42  -4  23   -1.22    2.01
  42  -4 -23   -0.15    1.25
  42   4 -23    1.40    1.71
 -40  -4  23    2.95    2.27
  40  -4 -23   -0.32    1.65
  40   4 -23    1.42    1.64
 -38  -4  23    6.31    2.34
  38   4 -23    5.84    1.90
 -36  -4  23    5.42    2.13
  36   4 -23    5.29    1.85
 -34  -4  23    0.21    1.72
  34   4 -23    1.40    1.44
 -32  -4  23    2.89    1.83
  32   4 -23    0.02    1.29
 -30  -4  23   -0.07    1.54
  30   4 -23    0.72    1.25
 -28  -4  23    7.86    2.14
  28   4 -23    6.23    1.73
 -26  -4  23    2.15    1.84
  26   4 -23    0.78    1.26
 -24  -4  23    2.66    1.91
  24   4 -23    0.69    1.22
 -24   4  23    1.16    0.85
 -24   4  23    1.91    0.99
 -22  -4  23   -1.03    1.62
 -22   4  23    0.58    0.93
  22   4 -23    0.44    1.14
 -22   4  23    0.76    0.94
 -20  -4  23    5.21    2.14
 -20   4  23    6.61    1.40
 -20   4  23    6.11    1.36
 -18  -4  23   16.58    2.81
 -18   4  23   10.14    1.65
 -16  -4  23    0.02    1.70
 -16   4  23    2.55    1.18
 -14  -4  23   -2.16    1.57
 -14   4  23    0.55    1.22
 -12  -4  23    1.06    1.97
 -12   4  23    2.22    1.39
 -10  -4  23   -1.24    1.73
 -10   4  23   -1.13    1.29
  -8  -4  23    6.91    2.51
  -8   4  23    6.27    1.84
  -6  -4  23    9.99    2.86
  -6  -4  23   14.25    2.97
  -6   4  23   16.11    2.63
  -4  -4  23    0.88    2.17
  -4  -4  23    0.99    2.43
  -4   4  23    0.93    1.89
 -41  -5  23    1.68    2.25
  41   5 -23   -0.14    1.72
 -39  -5  23   22.49    3.51
  39   5 -23   21.86    3.06
 -37  -5  23   -1.32    1.78
  37   5 -23    0.64    1.57
 -35  -5  23   62.75    4.83
  35   5 -23   59.74    4.19
 -33  -5  23    1.40    1.87
  33   5 -23   -0.02    1.26
 -31  -5  23   39.35    3.84
  31   5 -23   39.63    3.41
 -29  -5  23   11.49    2.62
  29   5 -23   10.72    2.17
 -27  -5  23   21.90    3.23
  27   5 -23   19.00    2.57
 -25  -5  23   47.01    4.31
  25   5 -23   45.84    3.41
 -23  -5  23   27.59    3.46
  23   5 -23   28.53    2.82
 -21  -5  23   89.31    5.38
 -21   5  23   91.26    3.96
 -19  -5  23   38.15    3.93
 -19   5  23   33.49    2.39
 -17  -5  23   44.03    4.38
 -17   5  23   43.61    2.84
 -15  -5  23    1.22    2.08
 -15   5  23    0.32    1.19
 -13  -5  23   30.96    3.62
 -13   5  23   28.20    2.78
 -11  -5  23   25.13    3.58
 -11   5  23   32.90    3.03
  -9  -5  23   73.50    5.42
  -9   5  23   71.01    4.32
  -7  -5  23   21.26    3.72
  -7   5  23   15.86    2.56
  -5  -5  23   43.36    4.77
  -5  -5  23   38.50    4.44
  -5   5  23   32.22    3.53
 -38  -6  23    2.50    2.24
  38   6 -23   -4.03    1.42
 -36  -6  23    1.10    2.39
  36   6 -23    0.80    1.71
 -34  -6  23   10.23    2.73
  34   6 -23    5.01    1.94
 -32  -6  23    6.61    2.30
  32   6 -23    2.95    1.75
 -30  -6  23   -1.06    1.82
  30   6 -23    2.95    1.81
 -28  -6  23   -0.57    1.91
  28   6 -23   -3.08    1.11
 -26  -6  23    2.23    2.23
  26   6 -23   -1.04    1.39
 -24  -6  23    1.80    2.16
  24   6 -23    1.38    1.38
 -22  -6  23   -2.54    1.82
 -20  -6  23   10.94    2.64
 -18  -6  23   -0.33    1.94
 -16  -6  23   -3.95    1.71
 -16   6  23    0.90    1.15
 -14  -6  23   -0.21    1.91
 -14   6  23    1.17    1.24
 -12  -6  23   -0.17    2.06
 -12   6  23   -0.04    1.42
 -10  -6  23   -0.67    2.08
 -10   6  23    1.03    1.49
  -8  -6  23    0.13    2.25
  -8   6  23    3.45    1.74
  -6  -6  23    4.22    2.40
  -6   6  23    0.24    1.67
 -37  -7  23    1.30    2.38
  37   7 -23    1.13    1.73
 -35  -7  23   26.79    3.89
  35   7 -23   27.43    3.43
 -33  -7  23    0.49    2.23
  33   7 -23    3.04    1.97
 -31  -7  23   33.66    3.97
  31   7 -23   38.17    3.86
 -29  -7  23   14.20    3.04
  29   7 -23   14.45    2.51
 -27  -7  23   18.04    3.10
  27   7 -23    9.03    2.13
 -25  -7  23   22.59    3.60
  25   7 -23   24.87    3.18
 -23  -7  23    9.20    2.88
 -21  -7  23   52.18    4.91
 -19  -7  23    0.67    2.09
 -17  -7  23   46.68    4.49
 -15  -7  23    1.62    2.47
 -13  -7  23   30.62    3.98
 -13   7  23   42.19    4.98
 -11  -7  23    0.92    2.15
 -11   7  23    0.22    1.55
  -9  -7  23   22.83    3.93
  -9   7  23   20.54    2.87
 -32  -8  23    0.41    2.27
  32   8 -23   -0.07    1.96
 -30  -8  23    4.69    2.28
  30   8 -23    3.26    2.06
 -28  -8  23   -0.52    2.27
  28   8 -23   -1.19    1.62
 -26  -8  23    1.02    2.22
  26   8 -23    1.01    1.74
 -24  -8  23    4.12    2.61
 -22  -8  23   -1.35    2.24
 -20  -8  23    7.40    2.66
 -18  -8  23   -0.81    2.03
 -16  -8  23   -0.57    2.11
 -14  -8  23   -1.24    2.20
 -23  -9  23   19.51    3.65
 -21  -9  23    4.21    2.48
  44   0 -24    1.07    1.50
 -44   0  24   -1.74    1.62
  42   0 -24   47.43    3.91
 -42   0  24   49.98    3.90
 -40   0  24    4.70    1.75
  40   0 -24    4.75    1.67
  38   0 -24   63.71    3.76
 -38   0  24   65.56    3.99
  36   0 -24    3.00    1.35
 -36   0  24    2.30    1.58
 -34   0  24   15.07    2.23
  34   0 -24   20.23    2.19
 -32   0  24   -0.03    1.32
  32   0 -24    2.30    1.08
  30   0 -24   75.03    3.40
 -30   0  24   68.17    3.92
 -28   0  24   11.03    2.01
  28   0 -24   11.69    1.51
  26   0 -24   32.20    2.10
 -26   0  24   26.82    2.72
 -24   0  24   59.72    3.76
  24   0 -24   55.51    2.64
 -22   0  24    1.29    1.47
 -20   0  24   41.23    3.53
 -18   0  24    0.17    1.35
 -18   0  24    0.27    1.40
 -16   0  24   93.64    4.87
 -16   0  24   97.54    5.01
 -14   0  24   28.40    3.13
 -14   0  24   29.43    3.06
 -12   0  24   22.12    2.94
 -12   0  24   31.53    3.46
 -10   0  24   10.01    2.45
 -10   0  24   12.03    2.43
  -8   0  24    2.35    1.95
  -8   0  24    2.28    1.77
  -6   0  24   32.41    3.84
  -6   0  24   20.40    3.20
  -4   0  24    1.93    2.14
  45  -1 -24    1.19    1.58
 -45  -1  24    0.37    1.83
  45   1 -24   -0.60    1.74
 -43  -1  24    0.12    1.88
  43  -1 -24    0.43    1.53
  43   1 -24   -0.73    1.40
  41  -1 -24   -0.50    1.22
 -41  -1  24    0.36    1.72
  41   1 -24   -0.54    1.28
 -39  -1  24   -1.32    1.47
  39  -1 -24    2.61    1.43
 -39   1  24    4.01    1.56
  39   1 -24    3.65    1.59
 -37  -1  24   -0.81    1.47
  37  -1 -24    1.44    1.14
 -37   1  24    0.92    1.38
  37   1 -24   -0.03    1.18
 -35  -1  24    4.71    1.83
  35  -1 -24    5.43    1.37
  35   1 -24    4.07    1.48
 -35   1  24    5.06    1.56
  33  -1 -24    1.08    0.96
 -33  -1  24   -0.32    1.38
 -33   1  24   -1.04    1.10
  33   1 -24   -1.23    0.96
  31  -1 -24    2.32    0.96
 -31  -1  24    0.98    1.42
  31   1 -24    0.37    1.09
 -31   1  24    1.60    1.31
 -29  -1  24   -0.44    1.32
  29  -1 -24    1.49    0.85
 -29   1  24    0.98    1.25
  29   1 -24   -1.83    0.76
  27  -1 -24   10.44    1.32
 -27  -1  24   12.02    2.12
  27   1 -24   10.12    1.57
 -27   1  24   14.10    1.98
 -25  -1  24    3.81    1.67
  25  -1 -24    2.40    0.84
 -25   1  24    1.92    1.34
  25   1 -24    3.11    1.07
 -23  -1  24    6.40    1.90
 -23   1  24    6.83    1.73
 -23   1  24    6.80    1.59
 -21  -1  24   -0.89    1.37
 -21   1  24   -0.09    1.19
 -21   1  24   -1.03    1.19
 -19  -1  24    6.75    1.90
 -19   1  24    2.46    1.48
 -19   1  24    5.59    1.64
 -17  -1  24    7.70    2.03
 -17   1  24    4.38    1.77
 -17   1  24    6.95    1.79
 -15  -1  24    2.67    1.77
 -15  -1  24    3.18    1.88
 -15   1  24    1.96    1.59
 -15   1  24    3.52    1.70
 -13  -1  24    4.76    2.03
 -13  -1  24    1.44    1.67
 -13   1  24    6.18    1.94
 -13   1  24    4.71    1.84
 -11  -1  24    5.04    2.15
 -11  -1  24    1.28    2.22
 -11   1  24    3.29    1.93
 -11   1  24    2.50    1.78
  -9  -1  24   -1.18    1.65
  -9  -1  24    0.60    1.84
  -9   1  24    0.02    1.53
  -9   1  24   -0.64    1.54
  -7  -1  24    9.92    2.54
  -7  -1  24    4.16    2.13
  -7   1  24    8.39    2.26
  -5  -1  24   -0.74    1.92
  -5  -1  24    2.59    2.23
  -5   1  24   -0.92    1.82
  -3  -1  24    0.37    1.97
  -3  -1  24    2.82    2.13
  -3   1  24   -0.91    1.91
  44  -2 -24   -1.62    1.39
 -44  -2  24    1.37    2.10
  44   2 -24    1.15    1.63
  42  -2 -24   33.89    3.16
 -42  -2  24   30.80    3.61
  42   2 -24   36.47    3.53
  40  -2 -24    0.35    1.27
 -40  -2  24    0.29    1.72
  40   2 -24   -0.67    1.33
  38  -2 -24   54.12    3.22
 -38  -2  24   47.40    3.98
  38   2 -24   48.10    3.53
  36  -2 -24    5.98    1.42
 -36  -2  24    5.18    2.00
  36   2 -24    5.52    1.70
  34  -2 -24   16.57    1.82
 -34  -2  24   13.07    2.37
  34   2 -24   16.62    2.25
 -34   2  24   16.37    2.03
 -32  -2  24   13.67    2.43
  32  -2 -24   17.13    1.73
 -32   2  24   16.57    1.99
  32   2 -24   14.26    2.01
 -30  -2  24   36.41    3.50
  30  -2 -24   38.86    2.42
 -30   2  24   36.90    2.72
 -30   2  24   37.63    2.28
  30   2 -24   36.95    2.92
 -28  -2  24   40.88    3.65
 -28   2  24   42.76    2.84
  28   2 -24   43.37    2.84
 -28   2  24   36.94    2.40
 -26  -2  24   21.33    2.69
  26   2 -24   18.47    2.07
 -26   2  24   15.14    1.81
 -26   2  24   15.38    2.01
 -24  -2  24   55.59    3.98
  24   2 -24   59.45    3.11
 -24   2  24   50.63    3.00
 -24   2  24   52.96    3.23
 -22  -2  24   -0.35    1.52
 -22   2  24    1.51    1.14
 -22   2  24    0.60    1.16
 -20  -2  24   59.99    4.07
 -20   2  24   52.04    3.38
 -20   2  24   55.59    3.22
 -18  -2  24   -1.27    1.44
 -18   2  24    0.59    1.23
 -18   2  24    1.34    1.35
 -16  -2  24   63.25    4.36
 -16   2  24   54.99    3.65
 -16   2  24   63.82    3.88
 -14  -2  24   17.53    2.98
 -14   2  24   17.50    2.49
 -14   2  24   13.65    2.19
 -12  -2  24   14.09    2.84
 -12  -2  24   11.56    2.53
 -12   2  24   10.22    2.23
 -12   2  24   12.59    2.35
 -10  -2  24   37.83    4.04
 -10  -2  24   43.16    4.39
 -10   2  24   41.55    3.81
  -8  -2  24    6.27    2.33
  -8  -2  24    5.77    2.43
  -8   2  24    3.74    1.94
  -6  -2  24   29.35    4.08
  -6  -2  24   24.79    3.67
  -6   2  24   27.11    3.48
  -4  -2  24   14.90    3.10
  -4  -2  24   16.83    3.25
  -4   2  24   12.35    2.71
 -43  -3  24    4.94    2.40
  43  -3 -24    4.69    1.74
  43   3 -24    5.33    2.04
  41  -3 -24   -0.26    1.23
 -41  -3  24    3.79    2.12
  41   3 -24    0.52    1.53
 -39  -3  24   -0.97    1.73
  39  -3 -24   -0.19    1.10
  39   3 -24    0.12    1.46
 -37  -3  24    2.21    1.81
  37   3 -24   -1.21    1.27
 -35  -3  24    1.83    1.80
  35   3 -24    1.19    1.42
 -33  -3  24    0.13    1.59
  33   3 -24    0.07    1.21
 -31  -3  24    8.00    2.22
  31   3 -24    7.43    1.71
 -29  -3  24    3.41    1.79
  29   3 -24    3.68    1.40
 -29   3  24    6.83    1.37
 -27  -3  24    2.35    1.80
 -27   3  24    2.77    1.13
  27   3 -24    1.14    1.19
 -27   3  24    1.31    1.08
 -25  -3  24    1.63    1.64
 -25   3  24    0.55    0.98
  25   3 -24    0.83    1.06
 -25   3  24    2.04    1.10
 -23  -3  24    0.33    1.70
 -23   3  24    1.53    1.13
 -23   3  24    0.74    1.02
  23   3 -24    2.47    1.24
 -21  -3  24    1.00    1.73
 -21   3  24    2.13    1.26
 -21   3  24    2.17    1.24
 -19  -3  24    0.49    1.77
 -19   3  24    2.50    1.35
 -19   3  24    0.18    1.17
 -17  -3  24   15.96    2.80
 -17   3  24   17.86    2.27
 -17   3  24   13.58    2.07
 -15  -3  24    0.64    1.71
 -15   3  24    0.85    1.23
 -15   3  24    0.74    1.31
 -13  -3  24    0.39    1.88
 -13   3  24   -1.06    1.18
 -11  -3  24    5.07    2.19
 -11   3  24    5.62    1.81
  -9  -3  24    3.16    2.17
  -9  -3  24    0.93    2.02
  -9   3  24    3.28    1.78
  -7  -3  24   -0.21    2.09
  -7  -3  24   -1.45    2.01
  -7   3  24    0.06    1.56
  -5  -3  24   -1.38    2.01
  -5  -3  24    1.57    2.24
  -5   3  24   -0.36    1.69
 -42  -4  24   20.43    3.45
  42   4 -24   27.48    3.33
 -40  -4  24    2.15    2.15
  40   4 -24    3.31    1.96
 -38  -4  24   32.43    3.84
  38   4 -24   38.62    3.69
 -36  -4  24   21.88    3.10
  36   4 -24   17.75    2.62
 -34  -4  24   34.42    3.60
  34   4 -24   34.83    3.37
 -32  -4  24   16.13    2.77
  32   4 -24   18.65    2.50
 -30  -4  24   12.00    2.50
  30   4 -24   15.48    2.36
 -28  -4  24   22.38    2.97
  28   4 -24   27.24    2.81
 -26  -4  24    5.56    2.12
  26   4 -24    2.01    1.44
 -24  -4  24   82.11    5.02
  24   4 -24   77.15    4.09
 -22  -4  24    2.18    1.89
 -22   4  24    3.09    1.18
 -22   4  24    0.22    1.02
 -20  -4  24   48.06    4.41
 -20   4  24   42.92    2.75
 -18  -4  24    0.82    1.84
 -18   4  24    0.23    1.14
 -16  -4  24   32.70    3.62
 -16   4  24   42.73    3.00
 -14  -4  24   28.04    3.62
 -14   4  24   27.53    2.80
 -12  -4  24   53.48    4.73
 -12   4  24   51.89    3.61
 -10  -4  24   27.79    3.82
 -10   4  24   30.00    3.24
  -8  -4  24   42.22    4.54
  -8  -4  24   35.99    4.13
  -8   4  24   41.21    3.78
  -6  -4  24   28.78    4.00
  -6  -4  24   38.10    4.50
  -6   4  24   39.22    3.91
 -41  -5  24   -0.39    2.09
  41   5 -24    1.15    1.85
 -39  -5  24   -2.21    2.08
  39   5 -24    3.14    1.87
 -37  -5  24    2.25    2.21
  37   5 -24    0.66    1.58
 -35  -5  24    1.38    2.13
  35   5 -24   -0.73    1.44
 -33  -5  24    5.90    2.26
  33   5 -24    1.22    1.51
 -31  -5  24    1.05    1.99
  31   5 -24   -1.02    1.31
 -29  -5  24    0.77    1.90
  29   5 -24    2.24    1.41
 -27  -5  24    0.63    1.93
  27   5 -24   -0.88    1.22
 -25  -5  24   -3.19    1.73
  25   5 -24   -1.14    1.19
 -23  -5  24    9.43    2.51
 -21  -5  24   -0.36    1.89
 -19  -5  24    6.88    2.50
 -19   5  24    6.38    1.47
 -17  -5  24    6.44    2.32
 -17   5  24    4.26    1.49
 -15  -5  24    2.44    2.19
 -15   5  24    1.57    1.38
 -13  -5  24   -2.14    1.70
 -13   5  24    0.35    1.34
 -11  -5  24   -0.17    2.19
 -11   5  24    0.81    1.40
  -9  -5  24   21.21    3.68
  -9   5  24   23.32    2.90
  -7  -5  24    0.13    2.53
  -7  -5  24    1.79    2.37
  -7   5  24    0.39    1.69
 -38  -6  24   20.18    3.47
  38   6 -24   22.12    3.12
 -36  -6  24    1.92    2.34
  36   6 -24    1.85    1.85
 -34  -6  24   53.60    5.03
  34   6 -24   44.45    3.97
 -32  -6  24   17.65    3.15
  32   6 -24   20.45    2.91
 -30  -6  24    5.31    2.39
  30   6 -24    5.70    2.00
 -28  -6  24   35.86    4.09
  28   6 -24   32.16    3.34
 -26  -6  24    1.53    2.16
  26   6 -24   -0.10    1.42
 -24  -6  24   51.72    4.72
  24   6 -24   53.55    3.84
 -22  -6  24    4.85    2.33
 -20  -6  24   49.04    4.64
 -18  -6  24    2.13    2.16
 -16  -6  24   22.35    3.57
 -16   6  24   18.88    2.60
 -14  -6  24   12.84    2.98
 -14   6  24   10.29    2.00
 -12  -6  24   32.95    4.09
 -12   6  24   33.45    3.19
 -10  -6  24   48.52    5.05
 -10   6  24   41.20    3.69
 -35  -7  24    4.49    2.53
  35   7 -24   14.90    2.86
 -33  -7  24    7.04    2.69
  33   7 -24    5.49    2.22
 -31  -7  24    7.80    2.80
  31   7 -24    7.43    2.32
 -29  -7  24    4.76    2.46
  29   7 -24    1.50    1.74
 -27  -7  24    0.41    2.18
  27   7 -24   -1.75    1.46
 -25  -7  24   -0.09    2.31
  25   7 -24    0.86    1.59
 -23  -7  24    4.57    2.36
 -21  -7  24    3.90    2.30
 -19  -7  24    3.62    2.48
 -17  -7  24    0.63    2.36
 -15  -7  24    1.46    2.30
 -13  -7  24   -0.72    2.21
 -30  -8  24    7.58    2.95
  30   8 -24    5.50    2.33
 -28  -8  24    9.87    3.02
  28   8 -24   12.13    2.56
 -26  -8  24    9.49    3.26
  26   8 -24    3.46    1.97
 -24  -8  24    6.76    2.75
 -22  -8  24    1.99    2.58
 -20  -8  24   46.92    4.90
 -18  -8  24    3.98    2.49
  44   0 -25    2.07    1.67
 -42   0  25   -1.19    1.53
  42   0 -25    1.22    1.39
 -40   0  25   -0.68    1.45
  40   0 -25   -0.02    1.22
  38   0 -25    0.65    1.19
 -38   0  25    0.64    1.46
 -36   0  25   -1.97    1.35
  36   0 -25    0.56    1.14
  34   0 -25   -0.02    0.99
 -34   0  25   -1.13    1.36
  32   0 -25    1.04    1.02
 -32   0  25   -0.13    1.30
 -30   0  25   -0.06    1.42
  30   0 -25   -0.50    0.87
 -28   0  25    0.90    1.35
  28   0 -25    0.02    0.84
 -26   0  25    1.98    1.49
  26   0 -25    0.60    0.83
 -24   0  25   -2.60    1.15
 -22   0  25   -0.90    1.34
 -20   0  25    0.79    1.54
 -20   0  25    1.29    1.56
 -18   0  25    0.14    1.48
 -18   0  25   -1.08    1.43
 -16   0  25    0.22    1.67
 -16   0  25   -0.69    1.53
 -14   0  25    0.24    1.68
 -14   0  25    4.07    1.82
 -12   0  25   -2.28    1.55
 -12   0  25   -0.38    1.63
 -10   0  25   -0.17    1.77
 -10   0  25   -0.10    1.74
  -8   0  25    2.52    2.12
  -8   0  25   -0.86    1.88
  -6   0  25   -1.33    1.99
  -6   0  25    1.28    1.93
  43  -1 -25    1.91    1.54
 -43  -1  25    0.44    1.80
  43   1 -25    0.31    1.55
 -41  -1  25   64.80    4.39
  41  -1 -25   57.00    3.70
  41   1 -25   52.80    3.85
  39  -1 -25    8.10    1.75
 -39  -1  25    9.33    2.17
 -39   1  25    9.27    2.11
  39   1 -25    9.71    2.06
 -37  -1  25   13.15    2.37
  37  -1 -25   17.44    2.13
 -37   1  25   17.76    2.32
  37   1 -25   18.65    2.35
  35  -1 -25    7.34    1.46
 -35  -1  25    5.04    1.92
 -35   1  25    4.68    1.66
  35   1 -25    5.97    1.55
 -33  -1  25    0.72    1.51
  33  -1 -25    1.56    0.97
  33   1 -25    1.56    1.20
 -33   1  25    0.94    1.28
  31  -1 -25   19.49    1.85
 -31  -1  25   15.69    2.38
 -31   1  25   16.17    2.19
  31   1 -25   20.12    2.22
 -29  -1  25    6.92    1.88
  29  -1 -25   10.38    1.56
 -29   1  25    9.66    1.88
  29   1 -25    9.66    1.60
 -27  -1  25   81.80    4.57
  27   1 -25   83.76    3.67
 -27   1  25   81.96    4.14
 -25  -1  25   -0.02    1.47
  25   1 -25   -1.06    0.81
 -25   1  25    1.31    1.33
 -25   1  25    0.12    1.15
 -23  -1  25   17.63    2.52
 -23   1  25   16.29    2.31
 -23   1  25   18.39    2.28
 -21  -1  25    2.78    1.70
 -21   1  25    2.32    1.53
 -21   1  25    3.61    1.63
 -19  -1  25   30.46    3.24
 -19   1  25   35.34    3.31
 -19   1  25   30.60    2.92
 -17  -1  25   28.55    3.11
 -17  -1  25   30.36    3.43
 -17   1  25   25.75    2.99
 -17   1  25   24.57    2.78
 -15  -1  25   31.73    3.43
 -15  -1  25   36.25    3.71
 -15   1  25   36.63    3.56
 -15   1  25   36.79    3.40
 -13  -1  25   42.67    4.11
 -13  -1  25   46.78    4.34
 -13   1  25   38.69    3.69
 -13   1  25   44.46    3.98
 -11  -1  25   -1.35    1.69
 -11  -1  25    0.19    1.88
 -11   1  25   -0.42    1.51
 -11   1  25   -0.11    1.57
  -9  -1  25   20.10    3.13
  -9  -1  25   19.18    3.21
  -9   1  25   18.00    2.87
  -9   1  25   23.59    3.26
  -7  -1  25    1.26    1.92
  -7  -1  25   -0.72    2.09
  -7   1  25    2.32    2.02
  -5  -1  25   56.30    5.11
  -5  -1  25   53.72    5.02
  -5   1  25   65.25    4.88
  44  -2 -25    1.39    1.56
 -44  -2  25    1.12    1.99
  44   2 -25   -2.96    1.37
  42  -2 -25    1.84    1.37
 -42  -2  25    0.46    1.79
  42   2 -25    1.39    1.77
  40  -2 -25    1.76    1.40
 -40  -2  25    1.77    1.78
  40   2 -25    4.47    1.69
 -38  -2  25   -0.12    1.63
  38  -2 -25    4.10    1.37
  38   2 -25   -0.33    1.29
  36  -2 -25    2.13    1.43
 -36  -2  25    0.14    1.65
  36   2 -25    2.39    1.46
 -34  -2  25    1.80    1.72
  34   2 -25   -0.66    1.17
 -34   2  25    1.10    1.48
 -32  -2  25    2.48    1.73
 -32   2  25    1.90    1.31
  32   2 -25    0.56    1.15
 -30  -2  25   -0.52    1.47
  30   2 -25    0.67    1.12
 -30   2  25    3.03    1.33
 -28  -2  25   -2.25    1.45
  28   2 -25   -1.36    0.93
 -28   2  25   -0.92    1.01
 -28   2  25    0.55    1.15
 -26  -2  25    0.48    1.60
 -26   2  25    2.95    1.26
 -26   2  25    1.12    1.23
  26   2 -25    2.63    1.19
 -24  -2  25   -0.73    1.51
 -24   2  25   -1.55    1.04
 -24   2  25    0.45    1.29
 -22  -2  25   -2.21    1.49
 -22   2  25   -0.02    1.20
 -22   2  25    1.42    1.22
 -20  -2  25    2.91    1.82
 -20   2  25    6.00    1.60
 -20   2  25    2.81    1.51
 -18  -2  25   -0.29    1.60
 -18   2  25    1.49    1.40
 -18   2  25    2.38    1.47
 -16  -2  25    3.13    1.98
 -16   2  25    0.86    1.54
 -16   2  25    3.22    1.73
 -14  -2  25    1.27    1.87
 -14  -2  25    0.37    1.99
 -14   2  25    3.15    1.63
 -14   2  25    0.15    1.43
 -12  -2  25    0.26    1.92
 -12  -2  25    0.60    2.00
 -12   2  25    2.36    1.63
 -12   2  25    0.34    1.47
 -10  -2  25   -0.20    1.97
 -10  -2  25    0.23    2.07
 -10   2  25   -2.02    1.41
  -8  -2  25    1.39    2.13
  -8  -2  25    2.68    2.40
  -8   2  25    0.90    1.67
  -6  -2  25    1.25    2.09
  -6  -2  25    4.00    2.40
  -6   2  25    1.86    1.93
 -43  -3  25   14.23    2.87
  43   3 -25   14.50    2.62
 -41  -3  25   19.87    3.16
  41   3 -25   28.26    3.22
 -39  -3  25   36.88    3.91
  39   3 -25   33.03    3.40
 -37  -3  25    4.67    2.05
  37   3 -25    4.88    1.73
 -35  -3  25   27.61    3.25
  35   3 -25   40.46    3.47
 -33  -3  25    0.93    1.83
  33   3 -25    1.34    1.32
 -31  -3  25   46.56    4.15
  31   3 -25   46.70    3.23
 -29  -3  25    0.28    1.64
  29   3 -25   -0.03    1.12
 -27  -3  25   46.56    4.01
 -27   3  25   58.91    3.15
  27   3 -25   58.98    3.49
 -25  -3  25    7.51    2.16
 -25   3  25    7.34    1.61
  25   3 -25    6.95    1.56
 -25   3  25    7.37    1.49
 -23  -3  25   45.01    4.19
 -23   3  25   46.56    2.93
 -23   3  25   50.55    3.14
 -21  -3  25    5.12    2.11
 -21   3  25    5.94    1.56
 -21   3  25    8.50    1.76
 -19  -3  25   32.18    3.50
 -19   3  25   42.70    3.12
 -19   3  25   44.32    3.17
 -17  -3  25    8.54    2.49
 -17   3  25    8.94    1.90
 -17   3  25    7.11    1.80
 -15  -3  25   27.51    3.52
 -15   3  25   27.81    2.88
 -13  -3  25   42.53    4.41
 -13   3  25   26.94    3.00
 -11  -3  25    8.34    2.50
 -11  -3  25   13.44    2.90
 -11   3  25   10.39    2.26
  -9  -3  25   23.34    3.59
  -9  -3  25   21.46    3.54
  -9   3  25   23.88    3.05
  -7  -3  25    7.53    2.67
  -7  -3  25    7.92    2.79
  -7   3  25    7.74    2.29
 -42  -4  25    2.30    2.26
  42   4 -25    9.11    2.39
 -40  -4  25    1.58    2.05
  40   4 -25    1.19    1.59
 -38  -4  25   -1.23    1.82
  38   4 -25   -0.25    1.50
 -36  -4  25    0.62    1.92
  36   4 -25    0.48    1.41
 -34  -4  25    1.43    1.91
  34   4 -25    0.89    1.36
 -32  -4  25    9.39    2.48
  32   4 -25    5.91    1.75
 -30  -4  25    0.40    1.77
  30   4 -25   -0.53    1.33
 -28  -4  25   -1.41    1.78
  28   4 -25   -0.49    1.15
 -26  -4  25    0.39    1.79
  26   4 -25    0.76    1.25
 -24  -4  25    2.49    2.06
 -22  -4  25    2.71    2.03
 -22   4  25   -0.83    0.99
 -20  -4  25    2.29    2.18
 -20   4  25    4.18    1.35
 -18  -4  25    3.58    2.08
 -18   4  25    5.94    1.59
 -16  -4  25    0.60    1.99
 -16   4  25    0.22    1.27
 -14  -4  25   -0.15    2.00
 -14   4  25    0.87    1.40
 -12  -4  25    8.26    2.66
 -12   4  25    9.71    2.20
 -10  -4  25    0.81    2.31
 -10  -4  25   -4.04    1.76
 -10   4  25   -1.35    1.43
  -8  -4  25    2.14    2.49
  -8  -4  25    5.32    2.57
  -8   4  25    5.80    2.11
 -39  -5  25   21.21    3.46
  39   5 -25   20.55    3.00
 -37  -5  25   22.25    3.51
  37   5 -25   18.82    2.84
 -35  -5  25   16.20    3.04
  35   5 -25   20.01    2.77
 -33  -5  25   23.42    3.38
  33   5 -25   18.86    2.64
 -31  -5  25   15.61    2.84
  31   5 -25   15.80    2.50
 -29  -5  25   -0.88    1.90
  29   5 -25    0.86    1.45
 -27  -5  25   33.01    3.76
  27   5 -25   33.33    3.20
 -25  -5  25    0.31    1.91
  25   5 -25    5.56    1.66
 -23  -5  25   73.86    5.16
 -21  -5  25    5.37    2.48
 -19  -5  25   33.85    3.99
 -19   5  25   37.40    3.42
 -17  -5  25   18.84    3.25
 -17   5  25   25.62    2.61
 -15  -5  25   12.45    3.09
 -15   5  25   14.64    2.22
 -13  -5  25   46.04    4.88
 -13   5  25   41.09    3.52
 -11  -5  25   16.11    3.29
 -11   5  25   16.99    2.62
  38   6 -25    2.51    1.78
 -36  -6  25   -0.80    2.03
  36   6 -25   -0.21    1.63
 -34  -6  25    0.59    2.27
  34   6 -25    2.92    1.83
 -32  -6  25    0.71    2.21
  32   6 -25    2.69    1.70
 -30  -6  25    1.72    2.18
  30   6 -25    1.24    1.50
 -28  -6  25   -0.18    2.14
  28   6 -25    0.60    1.49
 -26  -6  25    1.40    2.32
  26   6 -25    2.10    1.54
 -24  -6  25   -0.76    2.04
 -22  -6  25    9.60    2.69
 -20  -6  25    1.07    2.28
 -18  -6  25    2.47    2.48
 -16  -6  25   -0.81    2.20
 -14  -6  25   -1.38    2.12
 -14   6  25    3.14    1.71
 -12  -6  25    2.53    2.53
 -12   6  25   -0.68    1.54
 -33  -7  25    7.69    2.76
  33   7 -25    6.33    2.33
 -31  -7  25   30.96    4.22
  31   7 -25   26.37    3.19
 -29  -7  25    2.24    2.51
  29   7 -25   -0.74    1.56
 -27  -7  25    9.67    2.99
  27   7 -25    3.16    1.84
 -25  -7  25    3.49    2.44
 -23  -7  25   44.36    4.78
 -21  -7  25   15.21    3.39
 -19  -7  25   11.38    3.09
 -17  -7  25   20.10    3.72
  44   0 -26   19.73    2.70
  42   0 -26   27.22    2.91
 -42   0  26   25.35    3.01
  40   0 -26   24.79    2.75
 -40   0  26   24.22    2.84
  38   0 -26   24.18    2.57
 -38   0  26   23.47    2.78
 -36   0  26    9.32    2.08
  36   0 -26   14.34    2.05
  34   0 -26    6.33    1.45
 -34   0  26    6.50    1.86
  32   0 -26    3.50    1.21
 -32   0  26    0.74    1.60
 -30   0  26   47.85    3.67
  30   0 -26   56.52    2.92
 -28   0  26    2.47    1.62
  28   0 -26    4.50    1.76
 -26   0  26   28.88    3.03
 -24   0  26    4.11    1.78
 -22   0  26    1.36    1.58
 -22   0  26    3.84    1.79
 -20   0  26   12.18    2.31
 -20   0  26    7.71    2.14
 -18   0  26   11.10    2.45
 -18   0  26   11.42    2.36
 -16   0  26   66.70    4.57
 -16   0  26   65.29    4.44
 -14   0  26    3.58    1.94
 -14   0  26    1.77    1.82
 -12   0  26   25.94    3.54
 -12   0  26   23.82    3.25
 -10   0  26    2.26    1.91
 -10   0  26    0.54    1.85
  -8   0  26    8.14    2.58
  -8   0  26    7.04    2.46
  43  -1 -26    0.17    1.35
 -43  -1  26   -1.50    1.70
  43   1 -26   -1.40    1.43
  41  -1 -26   -0.22    1.30
 -41  -1  26   -0.48    1.68
  41   1 -26    0.10    1.39
 -39  -1  26    0.99    1.58
  39  -1 -26    1.58    1.28
  39   1 -26    0.44    1.26
  37  -1 -26    1.58    1.17
 -37  -1  26    4.07    1.83
 -37   1  26    0.59    1.37
  37   1 -26    1.79    1.35
 -35  -1  26    0.62    1.54
  35  -1 -26   -0.43    1.44
  35   1 -26   -1.61    0.99
 -35   1  26   -0.92    1.24
 -33  -1  26    2.08    1.77
  33   1 -26    5.64    1.47
 -33   1  26    3.05    1.60
 -31  -1  26    0.09    1.54
  31   1 -26    2.65    1.21
 -31   1  26    1.40    1.56
 -29  -1  26    0.51    1.60
 -29   1  26    0.76    1.39
  29   1 -26   -1.27    0.82
 -27  -1  26    0.84    1.60
  27   1 -26    0.17    0.88
 -27   1  26   -0.90    1.30
 -25  -1  26    5.35    1.87
 -25   1  26    3.61    1.55
 -25   1  26    2.72    1.55
 -23  -1  26    0.28    1.49
 -23   1  26    1.16    1.51
 -23   1  26   -0.38    1.36
 -21  -1  26    1.46    1.76
 -21   1  26    0.95    1.56
 -21   1  26    3.36    1.75
 -19  -1  26    1.16    1.80
 -19   1  26    2.11    1.67
 -19   1  26    1.10    1.60
 -17  -1  26   -0.97    1.78
 -17  -1  26    1.39    1.77
 -17   1  26   -0.08    1.51
 -17   1  26    0.59    1.55
 -15  -1  26   -0.60    1.82
 -15  -1  26    0.58    1.83
 -15   1  26    2.58    1.77
 -15   1  26   -0.17    1.67
 -13  -1  26    3.25    2.06
 -13  -1  26   -0.07    1.91
 -13   1  26   -0.03    1.51
 -13   1  26   -0.99    1.53
 -11  -1  26    1.27    1.94
 -11  -1  26    0.84    2.07
 -11   1  26   -0.05    1.72
 -11   1  26    3.16    2.00
  -9  -1  26    4.25    2.39
  -9  -1  26    0.57    2.13
  -9   1  26    4.50    1.97
 -42  -2  26   23.88    3.34
  42   2 -26   24.02    3.10
 -40  -2  26    9.16    2.31
  40   2 -26    7.58    1.99
 -38  -2  26   42.66    3.92
  38   2 -26   43.96    3.54
 -36  -2  26    0.57    1.68
  36   2 -26   -0.99    1.22
 -34  -2  26   40.67    3.81
  34   2 -26   39.00    3.14
 -32  -2  26    1.70    1.72
 -32   2  26   -0.55    1.33
  32   2 -26    3.89    1.45
 -30  -2  26   79.39    4.87
 -30   2  26   78.40    3.98
  30   2 -26   81.90    3.98
 -28  -2  26   11.56    2.47
  28   2 -26   13.18    1.85
 -28   2  26    9.74    1.75
 -28   2  26    9.18    1.89
 -26  -2  26   42.22    3.82
 -26   2  26   50.73    3.38
 -26   2  26   48.03    3.02
  26   2 -26   50.01    2.98
 -24  -2  26   10.97    2.47
 -24   2  26   13.13    2.12
 -24   2  26   13.75    2.06
 -22  -2  26   13.79    2.68
 -22   2  26   17.23    2.25
 -22   2  26   13.09    2.17
 -20  -2  26   14.87    2.67
 -20   2  26   17.63    2.43
 -20   2  26   19.55    2.49
 -18  -2  26   17.21    3.00
 -18   2  26   14.47    2.48
 -18   2  26   11.50    2.12
 -16  -2  26   77.28    5.06
 -16   2  26   66.07    4.16
 -16   2  26   65.80    4.26
 -14  -2  26   -0.19    1.81
 -14  -2  26    0.28    1.79
 -14   2  26    1.34    1.67
 -14   2  26    0.21    1.64
 -12  -2  26   25.57    3.60
 -12  -2  26   21.14    3.40
 -12   2  26   20.34    3.01
 -10  -2  26   -1.54    1.92
 -10  -2  26    0.44    2.26
 -10   2  26   -1.55    1.65
  -8  -2  26   24.25    3.62
  -8  -2  26   19.67    3.49
  -8   2  26   26.04    3.38
 -41  -3  26   -1.58    1.89
  41   3 -26    2.44    1.80
 -39  -3  26    9.31    2.40
  39   3 -26    4.85    1.83
 -37  -3  26   -0.89    1.62
  37   3 -26   -1.40    1.26
 -35  -3  26    2.49    1.93
  35   3 -26    4.16    1.57
 -33  -3  26    2.66    1.88
  33   3 -26    4.52    1.64
 -31  -3  26   10.20    2.40
  31   3 -26    4.05    1.55
 -29  -3  26   -0.44    1.72
  29   3 -26   -0.31    1.19
 -27  -3  26    1.49    1.79
  27   3 -26    1.62    1.25
 -25  -3  26   -0.62    1.78
 -25   3  26    0.17    1.10
 -25   3  26    0.70    1.24
 -23  -3  26   -0.01    1.87
 -23   3  26    0.65    1.26
 -23   3  26   -0.71    1.19
 -21  -3  26    3.35    2.04
 -21   3  26    4.43    1.57
 -21   3  26    6.40    1.66
 -19  -3  26    1.18    1.98
 -19   3  26    1.85    1.45
 -19   3  26    3.46    1.55
 -17  -3  26    0.93    1.93
 -17   3  26   -1.47    1.29
 -17   3  26    2.83    1.50
 -15  -3  26    4.82    2.21
 -15   3  26    2.47    1.68
 -13  -3  26   -0.94    2.29
 -13  -3  26   -0.12    2.00
 -13   3  26   -0.18    1.54
 -11  -3  26   -2.01    1.94
 -11  -3  26    2.83    2.29
 -11   3  26   -0.15    1.60
  -9  -3  26    1.05    2.14
  -9  -3  26    1.85    2.16
  -9   3  26   -1.15    1.58
 -40  -4  26    0.71    2.09
  40   4 -26    0.40    1.70
 -38  -4  26   44.76    4.42
  38   4 -26   39.03    3.66
 -36  -4  26    2.24    2.06
  36   4 -26    2.52    1.53
 -34  -4  26   29.33    3.58
  34   4 -26   37.94    3.50
 -32  -4  26    3.88    2.10
  32   4 -26   -0.06    1.40
 -30  -4  26   20.36    3.05
  30   4 -26   27.68    2.86
 -28  -4  26    8.83    2.46
  28   4 -26    9.36    1.89
 -26  -4  26   18.95    3.00
  26   4 -26   21.45    2.52
 -24  -4  26   16.62    2.94
 -22  -4  26   38.68    4.22
 -22   4  26   28.03    3.83
 -20  -4  26    9.65    2.61
 -20   4  26   13.44    2.06
 -18  -4  26   20.31    3.14
 -18   4  26   19.32    2.41
 -16  -4  26   15.92    3.16
 -16   4  26   12.78    2.22
 -14  -4  26   11.48    3.05
 -14   4  26    5.12    1.86
 -12  -4  26   32.98    4.27
 -12   4  26   33.89    3.45
 -39  -5  26    2.58    2.26
  39   5 -26    1.54    1.80
 -37  -5  26    1.92    2.27
  37   5 -26    6.54    2.00
 -35  -5  26    0.76    2.06
  35   5 -26   -0.32    1.50
 -33  -5  26   -0.05    1.98
  33   5 -26   -0.60    1.48
 -31  -5  26   -0.42    1.91
  31   5 -26    0.03    1.41
 -29  -5  26    0.15    2.10
  29   5 -26    2.88    1.63
 -27  -5  26    3.78    2.22
  27   5 -26   -0.82    1.33
 -25  -5  26    6.98    2.45
 -23  -5  26    2.36    2.08
 -21  -5  26   -0.74    1.98
 -19  -5  26   -1.22    1.98
 -17  -5  26   -1.95    2.09
 -17   5  26    1.60    1.44
 -15  -5  26    1.22    2.37
 -15   5  26    0.22    1.47
 -13  -5  26    3.49    2.57
 -13   5  26    0.09    1.55
 -36  -6  26   12.01    2.99
  36   6 -26    8.68    2.26
 -34  -6  26   51.80    5.11
  34   6 -26   51.88    4.40
 -32  -6  26    3.41    2.46
  32   6 -26    0.57    1.66
 -30  -6  26    7.96    2.85
  30   6 -26   16.26    2.62
 -28  -6  26   15.80    3.49
  28   6 -26   19.08    2.74
 -26  -6  26   16.15    3.25
 -24  -6  26   27.77    3.80
 -22  -6  26   23.18    3.80
 -20  -6  26   26.67    4.00
 -18  -6  26   -0.64    2.19
 -16  -6  26    9.98    3.04
 -31  -7  26    1.26    2.28
  31   7 -26    2.50    1.90
 -29  -7  26    2.56    2.46
  29   7 -26   -2.34    1.47
 -27  -7  26    0.47    2.27
 -25  -7  26    0.43    2.36
 -23  -7  26    6.62    2.72
 -21  -7  26    0.36    2.21
  42   0 -27   -0.25    1.33
 -40   0  27    0.82    1.63
  40   0 -27   -0.25    1.25
 -38   0  27    0.78    1.67
  38   0 -27    0.67    1.24
  36   0 -27   -0.85    1.09
 -36   0  27   -0.19    1.55
 -34   0  27   -0.17    1.40
 -32   0  27    1.15    1.52
 -30   0  27    1.78    1.63
 -28   0  27    0.30    1.49
 -26   0  27    0.93    1.60
 -24   0  27   -0.43    1.44
 -22   0  27   -3.01    1.38
 -22   0  27   -0.93    1.48
 -20   0  27   -1.78    1.54
 -20   0  27    1.21    1.62
 -18   0  27   -0.82    1.63
 -18   0  27    0.57    1.81
 -16   0  27   -2.44    1.54
 -16   0  27   -1.45    1.66
 -14   0  27   -1.47    1.71
 -14   0  27    3.07    2.12
 -12   0  27    0.32    1.95
 -12   0  27   -1.74    1.76
 -43  -1  27   13.33    2.59
  43   1 -27   11.78    2.28
 -41  -1  27   41.49    3.84
  41   1 -27   51.41    3.68
 -39  -1  27   -0.68    1.71
  39   1 -27    0.80    1.27
 -37  -1  27   34.51    3.38
  37   1 -27   34.61    3.04
 -35  -1  27    4.94    1.96
 -35   1  27    6.43    1.92
  35   1 -27    7.58    1.62
 -33  -1  27   36.72    3.49
  33   1 -27   50.88    3.11
 -33   1  27   44.49    3.42
 -31  -1  27   15.88    2.61
  31   1 -27   16.60    1.96
 -31   1  27   15.55    2.33
 -29  -1  27   39.23    3.67
 -29   1  27   41.58    3.41
  29   1 -27   49.85    2.93
 -27  -1  27   17.60    2.77
 -27   1  27   22.42    2.49
 -27   1  27   21.76    2.60
 -25  -1  27    0.62    1.55
 -25   1  27   -1.02    1.35
 -25   1  27   -1.08    1.36
 -23  -1  27   19.80    2.89
 -23   1  27   13.20    2.26
 -23   1  27   13.23    2.32
 -21  -1  27   -0.19    1.68
 -21   1  27    1.05    1.55
 -21   1  27   -1.67    1.31
 -19  -1  27   65.82    4.43
 -19  -1  27   57.09    4.45
 -19   1  27   58.13    4.22
 -19   1  27   60.55    4.02
 -17  -1  27   -1.75    1.66
 -17  -1  27   -0.64    1.87
 -17   1  27   -0.82    1.60
 -17   1  27    1.59    1.68
 -15  -1  27   40.15    4.13
 -15  -1  27   40.21    4.07
 -15   1  27   45.78    4.15
 -15   1  27   41.67    3.98
 -13  -1  27    7.82    2.45
 -13  -1  27    2.59    2.24
 -13   1  27    4.52    1.96
 -13   1  27    5.78    2.29
 -11  -1  27   13.75    3.02
 -11  -1  27   14.49    3.07
 -11   1  27   12.71    2.79
 -11   1  27   16.18    2.88
 -42  -2  27    4.90    2.21
  42   2 -27    6.25    1.97
 -40  -2  27    0.28    1.82
  40   2 -27    1.79    1.54
 -38  -2  27    0.85    1.82
  38   2 -27    2.47    1.53
 -36  -2  27    4.02    1.93
  36   2 -27    5.53    1.59
 -34  -2  27   19.01    2.84
  34   2 -27   18.46    2.33
 -32  -2  27    3.03    1.89
  32   2 -27    0.76    1.28
 -30  -2  27    4.90    2.07
  30   2 -27    4.68    1.45
 -30   2  27    3.45    1.55
 -28  -2  27    8.66    2.32
 -28   2  27   11.68    2.74
 -28   2  27   10.03    1.99
  28   2 -27    9.18    1.64
 -26  -2  27   -0.47    1.69
 -26   2  27   -0.61    1.18
 -26   2  27   -1.45    1.26
 -24  -2  27    0.59    1.77
 -24   2  27    1.94    1.37
 -24   2  27    1.34    1.48
 -22  -2  27    1.89    1.83
 -22   2  27    0.63    1.37
 -22   2  27    0.91    1.55
 -20  -2  27    0.88    1.91
 -20   2  27    1.51    1.57
 -20   2  27    2.03    1.69
 -18  -2  27    2.13    2.09
 -18   2  27   -2.66    1.34
 -18   2  27    0.02    1.52
 -16  -2  27    0.44    1.93
 -16  -2  27    0.58    2.13
 -16   2  27   -0.60    1.55
 -16   2  27   -0.04    1.65
 -14  -2  27    8.11    2.63
 -14  -2  27    4.79    2.66
 -14   2  27   11.15    2.45
 -14   2  27    4.99    1.92
 -12  -2  27    1.16    2.14
 -12  -2  27    4.66    2.24
 -12   2  27    1.31    1.68
 -41  -3  27   40.63    4.13
  41   3 -27   54.27    3.97
 -39  -3  27    1.94    2.05
  39   3 -27    1.24    1.62
 -37  -3  27   29.25    3.56
  37   3 -27   34.53    3.23
 -35  -3  27   12.48    2.62
  35   3 -27   14.66    2.33
 -33  -3  27   28.63    3.50
  33   3 -27   34.86    3.13
 -31  -3  27   11.83    2.58
  31   3 -27   16.04    2.20
 -29  -3  27   18.68    2.92
  29   3 -27   22.36    2.44
 -27  -3  27   30.67    3.49
 -25  -3  27    7.17    2.40
 -23  -3  27   36.79    4.02
 -23   3  27   33.99    3.10
 -23   3  27   30.75    2.80
 -21  -3  27    4.89    2.26
 -21   3  27    5.90    1.74
 -21   3  27    5.88    1.73
 -19  -3  27   22.75    3.33
 -19   3  27   25.82    2.90
 -19   3  27   21.32    2.60
 -17  -3  27    0.99    2.11
 -17   3  27    0.20    1.46
 -15  -3  27   24.27    3.55
 -15   3  27   19.29    2.77
 -13  -3  27    4.93    2.73
 -13  -3  27    1.70    2.34
 -13   3  27    1.06    1.69
  40   4 -27    2.31    1.79
 -38  -4  27    4.26    2.26
  38   4 -27    1.16    1.57
 -36  -4  27    4.87    2.26
  36   4 -27    4.05    1.80
 -34  -4  27    2.39    2.20
  34   4 -27    1.39    1.59
 -32  -4  27   -0.02    1.95
  32   4 -27    0.50    1.41
 -30  -4  27    0.59    2.06
  30   4 -27   -1.14    1.23
 -28  -4  27    2.67    2.12
  28   4 -27    1.11    1.35
 -26  -4  27    0.02    1.93
 -24  -4  27    2.76    2.16
 -22  -4  27    1.33    1.97
 -20  -4  27    3.24    2.30
 -20   4  27   -0.26    1.30
 -18  -4  27    0.04    2.05
 -18   4  27    0.65    1.38
 -16  -4  27   -0.72    2.10
 -16   4  27   -0.39    1.48
 -14  -4  27    4.95    2.43
 -14   4  27    3.73    1.84
 -37  -5  27   45.02    4.61
  37   5 -27   51.44    4.23
 -35  -5  27    0.99    2.19
  35   5 -27    1.05    1.70
 -33  -5  27   23.67    3.51
  33   5 -27   33.09    3.45
 -31  -5  27    0.62    2.23
  31   5 -27    7.76    2.03
 -29  -5  27   13.41    3.07
  29   5 -27    9.95    2.11
 -27  -5  27   25.20    3.62
 -25  -5  27   12.98    3.05
 -23  -5  27   35.63    4.27
 -21  -5  27    8.20    2.80
 -19  -5  27   26.75    4.05
 -17  -5  27    0.02    2.26
 -32  -6  27    2.57    2.47
  32   6 -27    1.75    1.68
 -30  -6  27   -1.36    2.25
  30   6 -27    0.83    1.56
 -28  -6  27    0.06    2.25
 -26  -6  27    0.90    2.39
 -24  -6  27   -0.95    2.27
 -22  -6  27    1.08    2.36
 -20  -6  27   -3.22    2.07
 -40   0  28   13.48    3.58
 -38   0  28    6.80    2.09
 -36   0  28    4.10    1.90
 -34   0  28   23.89    2.88
 -32   0  28   30.78    3.22
 -30   0  28   31.54    3.26
 -28   0  28    0.09    1.53
 -26   0  28   21.24    2.77
 -24   0  28   16.09    2.65
 -24   0  28   11.17    2.35
 -22   0  28   39.17    3.72
 -22   0  28   38.90    3.83
 -20   0  28    8.76    2.37
 -20   0  28    4.78    2.18
 -18   0  28   65.35    4.65
 -18   0  28   64.66    4.84
 -16   0  28   24.10    3.45
 -16   0  28   18.99    3.00
 -14   0  28   11.77    2.58
 -14   0  28   10.60    2.80
 -41  -1  28   -1.48    1.64
  41   1 -28   -0.43    1.40
 -39  -1  28    0.90    1.90
  39   1 -28    0.62    1.28
 -37  -1  28   -0.82    1.67
  37   1 -28    2.26    1.25
 -35  -1  28    0.14    1.61
  35   1 -28    4.11    1.60
 -35   1  28   -1.66    1.74
 -33  -1  28    2.29    1.91
 -33   1  28    0.29    1.56
 -31  -1  28   -0.97    1.58
 -31   1  28    2.49    1.62
 -29  -1  28    5.20    2.07
 -29   1  28    0.63    1.46
 -29   1  28    2.93    1.59
 -27  -1  28    0.00    1.70
 -27   1  28   -0.33    1.45
 -27   1  28   -0.70    1.47
 -25  -1  28   -0.68    1.58
 -25   1  28   -0.90    1.50
 -25   1  28   -1.80    1.36
 -23  -1  28    1.94    1.83
 -23   1  28   -1.72    1.32
 -23   1  28    0.37    1.48
 -21  -1  28    1.73    1.97
 -21  -1  28    0.89    1.83
 -21   1  28    1.00    1.61
 -21   1  28    1.27    1.77
 -19  -1  28    7.36    2.36
 -19  -1  28    5.57    2.37
 -19   1  28    4.42    1.94
 -19   1  28    0.33    1.69
 -17  -1  28    0.81    2.02
 -17  -1  28    2.95    2.13
 -17   1  28   -1.32    1.62
 -17   1  28   -0.72    1.81
 -15  -1  28    0.18    2.02
 -15  -1  28   -1.12    1.90
 -15   1  28    1.20    1.80
 -15   1  28    0.54    1.85
 -40  -2  28   46.11    4.16
  40   2 -28   42.42    3.72
 -38  -2  28   16.19    2.77
  38   2 -28   12.51    2.17
 -36  -2  28   25.13    3.24
  36   2 -28   30.33    2.95
 -34  -2  28   20.62    3.08
  34   2 -28   14.53    2.15
 -32  -2  28   11.60    2.56
  32   2 -28   14.23    2.07
 -30  -2  28   49.59    4.31
  30   2 -28   59.35    3.41
 -28  -2  28   -0.37    1.81
 -28   2  28    1.04    1.55
 -26  -2  28   41.96    4.12
 -26   2  28   39.67    3.44
 -26   2  28   40.72    3.23
 -24  -2  28   -0.09    1.88
 -24   2  28   -2.03    1.32
 -24   2  28   -1.08    1.39
 -22  -2  28   41.93    4.35
 -22   2  28   37.61    3.38
 -22   2  28   40.01    3.63
 -20  -2  28   13.42    3.01
 -20   2  28   11.01    2.39
 -20   2  28   13.41    2.32
 -18  -2  28   36.36    4.14
 -18  -2  28   44.30    4.35
 -18   2  28   37.73    3.59
 -18   2  28   38.83    3.80
 -16  -2  28   17.02    3.15
 -16  -2  28   19.06    3.22
 -16   2  28   18.52    2.84
 -16   2  28   17.04    2.78
 -39  -3  28    4.95    2.19
  39   3 -28    4.59    1.85
 -37  -3  28    9.14    2.56
  37   3 -28    6.19    1.77
 -35  -3  28    3.25    2.22
  35   3 -28    1.32    1.48
 -33  -3  28    3.41    2.29
  33   3 -28    6.94    1.81
 -31  -3  28    0.61    1.98
  31   3 -28    1.91    1.33
 -29  -3  28   -1.34    1.88
  29   3 -28    0.81    1.27
 -27  -3  28    3.38    2.26
 -25  -3  28    3.05    2.19
 -23  -3  28    4.77    2.37
 -23   3  28    6.47    2.01
 -21  -3  28    1.42    2.14
 -21   3  28    1.33    1.55
 -21   3  28    4.14    1.80
 -19  -3  28   -1.57    1.91
 -19   3  28    2.16    1.59
 -17  -3  28    1.61    2.32
 -17   3  28    3.84    1.94
 -38  -4  28    8.76    2.68
  38   4 -28    7.34    2.10
 -36  -4  28   26.50    3.55
  36   4 -28   35.27    3.47
 -34  -4  28    2.87    2.17
  34   4 -28    1.79    1.58
 -32  -4  28   12.46    2.74
  32   4 -28   17.25    2.49
 -30  -4  28   22.61    3.52
  30   4 -28   21.22    2.60
 -28  -4  28    0.03    2.10
 -26  -4  28   26.18    3.63
 -24  -4  28    3.78    2.42
 -22  -4  28   32.06    4.03
 -20  -4  28    0.19    2.14
 -18  -4  28    9.84    2.90
 -18   4  28   11.53    2.22
 -33  -5  28    1.95    2.29
  33   5 -28    0.96    1.66
 -31  -5  28    1.22    2.21
  31   5 -28   -1.20    1.40
 -29  -5  28    2.04    2.33
 -27  -5  28    0.60    2.10
 -25  -5  28    3.14    2.56
 -23  -5  28   -1.30    2.16
 -21  -5  28    2.65    2.30
 -38   0  29   -1.09    1.68
 -36   0  29    1.40    1.74
 -34   0  29    0.18    1.74
 -32   0  29    0.62    1.71
 -30   0  29    0.40    1.61
 -28   0  29    0.23    1.64
 -26   0  29   -0.50    1.82
 -26   0  29   -1.21    1.75
 -24   0  29    0.30    1.99
 -24   0  29    0.23    1.80
 -22   0  29    0.50    1.85
 -22   0  29   -0.05    1.75
 -20   0  29   -0.72    1.84
 -20   0  29    0.67    2.00
 -18   0  29    0.76    1.96
 -18   0  29    3.29    2.12
 -39  -1  29    4.66    2.06
 -37  -1  29   10.10    2.40
 -35  -1  29    1.84    1.92
 -33  -1  29   39.86    3.89
 -33   1  29   42.41    4.50
 -31  -1  29    1.23    1.90
 -31   1  29   -0.24    1.58
 -29  -1  29   37.02    3.81
 -29   1  29   48.75    4.95
 -29   1  29   47.11    3.82
 -27  -1  29    3.48    2.04
 -27   1  29    2.62    1.81
 -27   1  29    2.88    1.80
 -25  -1  29   20.51    3.11
 -25   1  29   22.37    2.96
 -25   1  29   22.47    2.77
 -23  -1  29   10.67    2.64
 -23  -1  29   10.74    2.57
 -23   1  29   12.11    2.43
 -23   1  29   11.36    2.47
 -21  -1  29   23.50    3.36
 -21  -1  29   22.63    3.28
 -21   1  29   31.67    3.63
 -21   1  29   22.02    2.99
 -19  -1  29   34.71    4.01
 -19  -1  29   31.15    3.71
 -19   1  29   31.18    3.75
 -19   1  29   36.74    3.76
 -38  -2  29   -0.57    1.88
  38   2 -29    0.97    1.38
 -36  -2  29    2.88    1.99
  36   2 -29    3.12    1.62
 -34  -2  29    6.64    2.27
 -32  -2  29    7.40    2.36
 -30  -2  29    6.66    2.47
 -28  -2  29    6.04    2.38
 -26  -2  29    0.87    1.96
 -26   2  29   -0.60    1.64
 -24  -2  29    0.24    1.93
 -24   2  29    1.45    1.62
 -24   2  29   -0.36    1.47
 -22  -2  29    2.48    2.19
 -22   2  29    4.13    1.83
 -22   2  29    1.66    1.88
 -20  -2  29    0.77    2.20
 -20  -2  29    2.60    2.42
 -20   2  29   -1.18    1.49
 -20   2  29    1.30    1.60
 -18  -2  29    2.10    2.04
 -18  -2  29    0.57    1.99
 -18   2  29    1.09    1.76
 -18   2  29   -2.63    1.52
 -37  -3  29   12.97    2.77
  37   3 -29   12.52    2.28
 -35  -3  29    4.01    2.34
  35   3 -29    5.02    1.74
 -33  -3  29   18.29    3.20
  33   3 -29   40.70    3.38
 -31  -3  29    0.91    1.90
  31   3 -29    0.84    1.34
 -29  -3  29   25.95    3.58
 -27  -3  29    1.48    2.12
 -25  -3  29   26.90    3.60
 -23  -3  29    3.94    2.39
 -21  -3  29   21.71    3.44
 -21   3  29   28.47    3.05
 -34  -4  29   -0.34    2.03
  34   4 -29   -0.79    1.50
 -32  -4  29   -2.99    1.91
  32   4 -29   -0.97    1.37
 -30  -4  29    0.42    2.16
 -28  -4  29    7.26    2.69
 -26  -4  29    1.33    2.43
 -24  -4  29   -0.75    2.03
 -36   0  30   19.70    3.02
 -34   0  30    3.09    1.95
 -32   0  30   33.55    3.47
 -30   0  30    8.61    2.31
 -28   0  30    2.37    1.91
 -28   0  30    5.14    2.19
 -26   0  30    4.91    2.18
 -26   0  30    3.97    2.22
 -24   0  30   37.96    3.81
 -24   0  30   34.02    3.82
 -22   0  30   55.82    4.79
 -22   0  30   68.11    4.74
 -37  -1  30   -2.85    1.65
 -35  -1  30    2.61    2.02
 -33  -1  30    4.15    2.13
 -31  -1  30    2.27    2.06
 -31   1  30    1.11    2.37
 -29  -1  30    1.05    1.94
 -29   1  30   -1.09    1.58
 -27  -1  30    7.21    2.45
 -27   1  30    6.37    1.96
 -27   1  30    4.26    2.01
 -25  -1  30    2.03    2.17
 -25  -1  30   -2.03    1.89
 -25   1  30   -0.56    1.63
 -25   1  30    2.70    1.82
 -23  -1  30   -1.87    1.82
 -23  -1  30    2.22    2.22
 -23   1  30   -1.21    1.57
 -23   1  30    1.00    1.76
 -36  -2  30   16.25    2.97
 -34  -2  30    5.55    2.40
 -32  -2  30   31.31    3.72
 -30  -2  30   13.07    2.89
 -28  -2  30   25.70    3.49
 -26  -2  30   17.34    3.09
 -24  -2  30    8.22    2.58
 -24   2  30    4.71    2.72
 -24   2  30    3.30    2.97
 -31  -3  30   13.89    3.03
 -29  -3  30    3.01    2.26
 -27  -3  30    2.04    2.22
   0   0   0    0.00    0.00
;
_shelx_hkl_checksum     33306
_shelx_res_file
;
TITL K-M in C2/c
    shelx.res
    created by SHELXL-2018/3 at 09:54:29 on 23-Nov-2018
CELL  0.71073  35.8175  10.5633  24.0946   90.000  131.781   90.000
ZERR     8.00   0.0017   0.0005   0.0011    0.000    0.002    0.000
LATT   7
SYMM  - X,   Y, 1/2 - Z
SFAC  C    H    N    CL   RU
UNIT  256 328 24 16 8
MERG   2
OMIT    -2   0   2
OMIT     0   0   2
OMIT    -1   1   1
OMIT    -4   0   2
OMIT     1   1   0
OMIT    -3   1   2
OMIT    -2   2   1
OMIT     2   0   0
OMIT   -11   3   5
ABIN
HTAB C1 Cl2
HTAB C10 Cl1
HTAB C11 Cl2
EQIV $1 -x+1/2, y+1/2, -z+1/2
HTAB C13 Cl1_$1
HTAB C14 Cl1_$1
HTAB C1 Cl2
HTAB C10 Cl1
HTAB C11 Cl2
HTAB C13 Cl1_$1
HTAB C14 Cl1_$1
FMAP   2
PLAN    5
SIZE     0.210   0.280   0.340
ACTA
BOND   $H
CONF
L.S.  13    0   59
WGHT    0.054700    3.440900
FVAR       0.06056
RU1   5    0.363229    0.255592    0.302326    11.00000    0.01431    0.01479 =
         0.01431    0.00059    0.00891   -0.00060
CL1   4    0.279245    0.195262    0.211203    11.00000    0.01642    0.02618 =
         0.02848   -0.00327    0.01062   -0.00334
CL2   4    0.438773    0.353981    0.352256    11.00000    0.01786    0.02079 =
         0.02989    0.00008    0.01391   -0.00272
N1    3    0.383194    0.090728    0.266236    11.00000    0.02271    0.02059 =
         0.01951    0.00081    0.01410    0.00090
N2    3    0.356679    0.459811    0.388624    11.00000    0.02148    0.01229 =
         0.01680    0.00083    0.01208    0.00094
N3    3    0.331993    0.523322    0.283392    11.00000    0.02169    0.01698 =
         0.01813    0.00292    0.01220    0.00374
C1    1    0.435505    0.048264    0.331590    11.00000    0.02216    0.02452 =
         0.02586   -0.00227    0.01389    0.00557
AFIX  13
H1    2    0.455358    0.125580    0.355837    11.00000   -1.20000
AFIX   0
C2    1    0.461250   -0.028308    0.311485    11.00000    0.03487    0.03548 =
         0.04244   -0.00110    0.02844    0.00239
AFIX 137
H2A   2    0.495658   -0.042027    0.355392    11.00000   -1.50000
H2B   2    0.459579    0.017417    0.275447    11.00000   -1.50000
H2C   2    0.444691   -0.108425    0.290984    11.00000   -1.50000
AFIX   0
C3    1    0.434978   -0.016543    0.387577    11.00000    0.01996    0.02063 =
         0.02213    0.00069    0.01096   -0.00094
C4    1    0.460763   -0.129527    0.421903    11.00000    0.02487    0.02565 =
         0.03033    0.00212    0.01486    0.00166
AFIX  43
H4    2    0.476461   -0.168616    0.407563    11.00000   -1.20000
AFIX   0
C5    1    0.463693   -0.185280    0.476728    11.00000    0.03137    0.02327 =
         0.03511    0.00661    0.01568    0.00268
AFIX  43
H5    2    0.481190   -0.260705    0.498552    11.00000   -1.20000
AFIX   0
C6    1    0.441141   -0.130315    0.498739    11.00000    0.02789    0.02759 =
         0.02159    0.00761    0.01148   -0.00209
AFIX  43
H6    2    0.443424   -0.167247    0.535946    11.00000   -1.20000
AFIX   0
C7    1    0.414669   -0.018631    0.465280    11.00000    0.02499    0.02174 =
         0.02380   -0.00005    0.01492   -0.00335
AFIX  43
H7    2    0.399250    0.018681    0.480504    11.00000   -1.20000
AFIX   0
C8    1    0.410547    0.039476    0.409128    11.00000    0.01785    0.01739 =
         0.01597   -0.00048    0.00829   -0.00417
C9    1    0.382467    0.157598    0.379847    11.00000    0.02172    0.01811 =
         0.01938   -0.00312    0.01434   -0.00131
AFIX  43
H9    2    0.372759    0.188017    0.404817    11.00000   -1.20000
AFIX   0
C10   1    0.348048   -0.019657    0.231936    11.00000    0.03176    0.02156 =
         0.02958   -0.00670    0.01868   -0.00421
AFIX 137
H10A  2    0.345193   -0.051843    0.266234    11.00000   -1.50000
H10B  2    0.360709   -0.084894    0.220549    11.00000   -1.50000
H10C  2    0.315705    0.006978    0.187030    11.00000   -1.50000
AFIX   0
C11   1    0.380394    0.150071    0.207764    11.00000    0.04407    0.03097 =
         0.02958    0.00252    0.02880    0.00407
AFIX 137
H11A  2    0.406681    0.211464    0.230071    11.00000   -1.50000
H11B  2    0.348547    0.191039    0.171901    11.00000   -1.50000
H11C  2    0.384139    0.086122    0.183470    11.00000   -1.50000
AFIX   0
C12   1    0.347864    0.420258    0.327550    11.00000    0.01162    0.01851 =
         0.01623    0.00070    0.00852   -0.00250
C13   1    0.346739    0.596035    0.388008    11.00000    0.02566    0.01743 =
         0.02408    0.00135    0.01612    0.00421
AFIX  23
H13A  2    0.376768    0.640104    0.429556    11.00000   -1.20000
H13B  2    0.320685    0.608402    0.389721    11.00000   -1.20000
AFIX   0
C14   1    0.329722    0.640788    0.313874    11.00000    0.03466    0.01724 =
         0.03129    0.00259    0.02331    0.00641
AFIX  23
H14A  2    0.295961    0.674526    0.281612    11.00000   -1.20000
H14B  2    0.352141    0.704645    0.321270    11.00000   -1.20000
AFIX   0
C15   1    0.369428    0.384387    0.448516    11.00000    0.02332    0.01454 =
         0.01417   -0.00169    0.01175    0.00137
C16   1    0.419549    0.376128    0.514181    11.00000    0.02683    0.01938 =
         0.02141   -0.00161    0.01485    0.00119
C17   1    0.430463    0.302490    0.571363    11.00000    0.03303    0.02847 =
         0.01874    0.00013    0.01339    0.00676
AFIX  43
H17   2    0.463580    0.295647    0.615705    11.00000   -1.20000
AFIX   0
C18   1    0.393710    0.239046    0.564515    11.00000    0.05312    0.02685 =
         0.03363    0.00389    0.03442    0.00702
C19   1    0.344422    0.252198    0.498900    11.00000    0.04369    0.02819 =
         0.03541    0.00061    0.03310   -0.00149
AFIX  43
H19   2    0.319462    0.211225    0.494219    11.00000   -1.20000
AFIX   0
C20   1    0.330912    0.324959    0.439469    11.00000    0.02772    0.01645 =
         0.02596   -0.00307    0.02057   -0.00111
C21   1    0.459725    0.444637    0.523177    11.00000    0.01968    0.03213 =
         0.02525    0.00242    0.00760   -0.00081
AFIX 137
H21A  2    0.491880    0.414900    0.567151    11.00000   -1.50000
H21B  2    0.457045    0.533797    0.527643    11.00000   -1.50000
H21C  2    0.456104    0.429297    0.480524    11.00000   -1.50000
AFIX   0
C22   1    0.407324    0.157285    0.627627    11.00000    0.07263    0.04936 =
         0.04406    0.01770    0.04518    0.01519
AFIX 137
H22A  2    0.440341    0.178879    0.672911    11.00000   -1.50000
H22B  2    0.406526    0.069698    0.616245    11.00000   -1.50000
H22C  2    0.383708    0.171613    0.633607    11.00000   -1.50000
AFIX   0
C23   1    0.277679    0.332914    0.368079    11.00000    0.02770    0.03043 =
         0.03446   -0.00606    0.02197   -0.00453
AFIX 137
H23A  2    0.256838    0.285893    0.372514    11.00000   -1.50000
H23B  2    0.274738    0.298087    0.328510    11.00000   -1.50000
H23C  2    0.267244    0.419876    0.357329    11.00000   -1.50000
AFIX   0
C24   1    0.311308    0.522264    0.207613    11.00000    0.02838    0.01818 =
         0.01862    0.00416    0.01530    0.00477
C25   1    0.261046    0.490172    0.150985    11.00000    0.02747    0.02033 =
         0.02413    0.00470    0.01329    0.00411
C26   1    0.242123    0.484052    0.078881    11.00000    0.03833    0.04363 =
         0.02052    0.00574    0.01072    0.00134
AFIX  43
H26   2    0.209202    0.458177    0.040854    11.00000   -1.20000
AFIX   0
C27   1    0.271154    0.515622    0.062174    11.00000    0.06399    0.05730 =
         0.02386    0.00243    0.02729   -0.00065
C28   1    0.319840    0.557512    0.118232    11.00000    0.05655    0.05302 =
         0.03477    0.00770    0.03480   -0.00109
AFIX  43
H28   2    0.338852    0.582460    0.106630    11.00000   -1.20000
AFIX   0
C29   1    0.340554    0.562592    0.191756    11.00000    0.03382    0.02650 =
         0.02794    0.00526    0.02063    0.00151
C30   1    0.226929    0.469840    0.165472    11.00000    0.02596    0.02913 =
         0.03791    0.00299    0.01723    0.00411
AFIX 137
H30A  2    0.245338    0.432243    0.213694    11.00000   -1.50000
H30B  2    0.200096    0.414548    0.128166    11.00000   -1.50000
H30C  2    0.213420    0.549657    0.163869    11.00000   -1.50000
AFIX   0
C31   1    0.249459    0.506883   -0.017913    11.00000    0.09896    0.11964 =
         0.03739   -0.01039    0.04275   -0.02428
AFIX 137
H31A  2    0.275683    0.486405   -0.017664    11.00000   -1.50000
H31B  2    0.234799    0.586665   -0.042432    11.00000   -1.50000
H31C  2    0.224272    0.442093   -0.043926    11.00000   -1.50000
AFIX   0
C32   1    0.392416    0.617817    0.250639    11.00000    0.03641    0.02934 =
         0.03868    0.00644    0.02638    0.00024
AFIX 137
H32A  2    0.405493    0.592815    0.299048    11.00000   -1.50000
H32B  2    0.390623    0.708490    0.247040    11.00000   -1.50000
H32C  2    0.414020    0.587167    0.243167    11.00000   -1.50000
AFIX   0
HKLF 4
REM  K-M in C2/c
REM wR2 = 0.1097, GooF = S = 1.039, Restrained GooF = 1.039 for all data
REM R1 = 0.0382 for 5440 Fo > 4sig(Fo) and 0.0605 for all 7485 data
REM 352 parameters refined using 0 restraints
END
WGHT      0.0547      3.4409
REM Highest difference peak  0.455,  deepest hole -0.443,  1-sigma level  0.103
Q1    1   0.2500  0.2500  0.0000  10.50000  0.05    0.39
Q2    1   0.2583  0.3945 -0.0402  11.00000  0.05    0.37
Q3    1   0.2627  0.4708  0.0786  11.00000  0.05    0.37
Q4    1   0.2384  0.3492 -0.0285  11.00000  0.05    0.36
Q5    1   0.5034 -0.1532  0.3898  11.00000  0.05    0.35
;
_shelx_res_checksum     26027
_shelx_fab_file
;
    2    0    0    174.81      0.00
    4    0    0    -25.92      0.00
    6    0    0      8.53      0.00
    8    0    0     23.20      0.00
   10    0    0     -4.89      0.00
   12    0    0    -27.05      0.00
   14    0    0    -11.57      0.00
   16    0    0     -4.25      0.00
   18    0    0      3.36      0.00
   20    0    0      0.01      0.00
   22    0    0      1.77      0.00
   24    0    0     -0.85      0.00
   26    0    0     -2.94      0.00
   28    0    0      1.65      0.00
   30    0    0      4.95      0.00
   32    0    0     -0.31      0.00
   34    0    0      2.07      0.00
    1    1    0    129.15      0.00
    3    1    0     51.29      0.00
    5    1    0      1.16      0.00
    7    1    0     -4.38      0.00
    9    1    0      4.64      0.00
   11    1    0      0.15      0.00
   13    1    0     -8.59      0.00
   15    1    0     -7.13      0.00
   17    1    0      0.59      0.00
   19    1    0      0.91      0.00
   21    1    0     -1.03      0.00
   23    1    0      0.84      0.00
   25    1    0      0.94      0.00
   27    1    0      1.75      0.00
   29    1    0      1.95      0.00
   31    1    0      0.46      0.00
   33    1    0     -0.68      0.00
    0    2    0    -63.04      0.00
    2    2    0     17.59      0.00
    4    2    0     32.36      0.00
    6    2    0     -4.26      0.00
    8    2    0     -7.73      0.00
   10    2    0      2.61      0.00
   12    2    0     12.91      0.00
   14    2    0      0.20      0.00
   16    2    0     -1.57      0.00
   18    2    0     -2.10      0.00
   20    2    0     -0.73      0.00
   22    2    0     -1.05      0.00
   24    2    0      3.15      0.00
   26    2    0      2.43      0.00
   28    2    0      0.55      0.00
   30    2    0     -1.79      0.00
   32    2    0      0.14      0.00
    1    3    0    -31.71      0.00
    3    3    0     -3.33      0.00
    5    3    0     17.23      0.00
    7    3    0     14.14      0.00
    9    3    0     -1.89      0.00
   11    3    0      5.21      0.00
   13    3    0     10.62      0.00
   15    3    0      4.53      0.00
   17    3    0     -2.42      0.00
   19    3    0     -3.94      0.00
   21    3    0     -2.77      0.00
   23    3    0      2.69      0.00
   25    3    0      5.85      0.00
   27    3    0      1.96      0.00
   29    3    0     -0.20      0.00
   31    3    0     -3.48      0.00
   33    3    0     -3.62      0.00
    0    4    0    -17.57      0.00
    2    4    0    -19.31      0.00
    4    4    0      2.59      0.00
    6    4    0     15.38      0.00
    8    4    0     12.57      0.00
   10    4    0     -4.51      0.00
   12    4    0     -3.51      0.00
   14    4    0      6.71      0.00
   16    4    0      4.33      0.00
   18    4    0     -0.90      0.00
   20    4    0     -3.42      0.00
   22    4    0      0.11      0.00
   24    4    0      1.07      0.00
   26    4    0      0.42      0.00
   28    4    0     -1.99      0.00
   30    4    0     -1.81      0.00
   32    4    0     -2.91      0.00
    1    5    0      4.26      0.00
    3    5    0     -4.14      0.00
    5    5    0     -1.96      0.00
    7    5    0      9.29      0.00
    9    5    0      2.37      0.00
   11    5    0     -3.65      0.00
   13    5    0      0.39      0.00
   15    5    0      1.34      0.00
   17    5    0      5.18      0.00
   19    5    0      1.25      0.00
   21    5    0     -2.48      0.00
   23    5    0     -0.31      0.00
   25    5    0     -0.47      0.00
   27    5    0     -2.91      0.00
   29    5    0     -3.76      0.00
   31    5    0     -1.92      0.00
    0    6    0     -9.20      0.00
    2    6    0     -7.43      0.00
    4    6    0     -2.49      0.00
    6    6    0     -4.34      0.00
    8    6    0     -5.14      0.00
   10    6    0      4.21      0.00
   12    6    0     -3.38      0.00
   14    6    0     -5.12      0.00
   16    6    0      1.07      0.00
   18    6    0      3.14      0.00
   20    6    0      0.69      0.00
   22    6    0     -0.53      0.00
   24    6    0     -0.82      0.00
   26    6    0     -1.90      0.00
   28    6    0     -0.23      0.00
   30    6    0      0.33      0.00
    1    7    0     -3.39      0.00
    3    7    0     -4.96      0.00
    5    7    0     -5.85      0.00
    7    7    0     -5.47      0.00
    9    7    0      2.74      0.00
   11    7    0     -0.31      0.00
   13    7    0     -1.61      0.00
   15    7    0     -2.89      0.00
   17    7    0     -0.76      0.00
   19    7    0      6.17      0.00
   21    7    0      4.80      0.00
   23    7    0     -0.09      0.00
   25    7    0     -0.86      0.00
   27    7    0     -0.18      0.00
   29    7    0      0.54      0.00
    0    8    0     -1.82      0.00
    2    8    0     -5.39      0.00
    4    8    0     -6.27      0.00
    6    8    0      1.66      0.00
    8    8    0      3.45      0.00
   10    8    0      0.86      0.00
   12    8    0      0.43      0.00
   14    8    0     -2.94      0.00
   16    8    0     -1.11      0.00
   18    8    0      2.34      0.00
   20    8    0      2.30      0.00
   22    8    0      1.53      0.00
   24    8    0      0.97      0.00
   26    8    0     -1.07      0.00
    1    9    0      3.04      0.00
    3    9    0     -2.58      0.00
    5    9    0     -0.54      0.00
    7    9    0      0.23      0.00
    9    9    0     -1.55      0.00
   11    9    0     -2.17      0.00
   13    9    0     -8.33      0.00
   15    9    0     -1.77      0.00
   17    9    0     -2.03      0.00
   19    9    0     -2.73      0.00
   21    9    0      0.31      0.00
   23    9    0     -1.20      0.00
   25    9    0     -4.06      0.00
    0   10    0     -4.99      0.00
    2   10    0     -2.17      0.00
    4   10    0     -0.13      0.00
    6   10    0     -2.54      0.00
    8   10    0     -2.70      0.00
   10   10    0     -2.45      0.00
   12   10    0     -3.34      0.00
   14   10    0     -2.30      0.00
   16   10    0      0.35      0.00
   18   10    0     -0.55      0.00
   20   10    0     -3.10      0.00
   22   10    0     -2.04      0.00
    1   11    0     -3.85      0.00
    3   11    0      0.80      0.00
    5   11    0     -0.76      0.00
    7   11    0     -3.33      0.00
    9   11    0     -2.43      0.00
   11   11    0     -3.33      0.00
   13   11    0      1.02      0.00
   15   11    0      0.43      0.00
   17   11    0      1.16      0.00
   19   11    0     -0.98      0.00
    0   12    0     -4.44      0.00
    2   12    0     -3.15      0.00
    4   12    0     -0.75      0.00
    6   12    0     -1.45      0.00
    8   12    0     -6.22      0.00
   10   12    0     -5.30      0.00
   12   12    0      2.02      0.00
   14   12    0      3.19      0.00
    7   13    0      3.22      0.00
    9   13    0     -1.62      0.00
  -35    1    1      1.25      0.00
  -33    1    1     -0.58      0.00
  -31    1    1      2.45      0.00
  -29    1    1     -2.17      0.00
  -27    1    1     -3.53      0.00
  -25    1    1     -1.79      0.00
  -23    1    1      2.25      0.00
  -21    1    1      1.15      0.00
  -19    1    1      2.56      0.00
  -17    1    1     -4.32      0.00
  -15    1    1    -10.29      0.00
  -13    1    1    -21.08      0.00
  -11    1    1      1.07      0.00
   -9    1    1      8.38      0.00
   -7    1    1    -16.09      0.00
   -5    1    1    -32.39      0.00
   -1    1    1    239.02      0.00
    3    1    1    -57.09      0.00
    5    1    1      1.11      0.00
    7    1    1      4.76      0.00
    9    1    1    -16.31      0.00
   11    1    1    -23.25      0.00
   13    1    1     -6.06      0.00
   15    1    1     -0.15      0.00
   17    1    1      4.04      0.00
   19    1    1      0.18      0.00
   21    1    1      1.12      0.00
   23    1    1     -2.40      0.00
   25    1    1     -3.09      0.00
   27    1    1      2.65      0.00
   29    1    1      3.54      0.00
   31    1    1     -1.24      0.00
   33    1    1      0.12      0.00
  -34    2    1      1.32      0.00
  -32    2    1      1.06      0.00
  -30    2    1     -0.09      0.00
  -28    2    1     -1.24      0.00
  -26    2    1     -2.45      0.00
  -24    2    1     -0.40      0.00
  -22    2    1      0.93      0.00
  -20    2    1      3.89      0.00
  -18    2    1      0.32      0.00
  -16    2    1     -9.86      0.00
  -14    2    1    -10.02      0.00
  -12    2    1      0.08      0.00
  -10    2    1     -3.18      0.00
   -8    2    1    -21.93      0.00
   -6    2    1    -14.55      0.00
   -4    2    1     26.04      0.00
   -2    2    1     78.06      0.00
    0    2    1     61.51      0.00
    2    2    1     -1.24      0.00
    4    2    1    -29.23      0.00
    6    2    1    -16.61      0.00
    8    2    1      4.07      0.00
   10    2    1     -4.22      0.00
   12    2    1    -13.17      0.00
   14    2    1     -5.65      0.00
   16    2    1      3.82      0.00
   18    2    1      2.48      0.00
   20    2    1     -0.01      0.00
   22    2    1     -2.27      0.00
   24    2    1     -3.75      0.00
   26    2    1     -0.36      0.00
   28    2    1      1.22      0.00
   30    2    1      0.86      0.00
   32    2    1     -1.77      0.00
  -33    3    1      1.45      0.00
  -31    3    1     -1.12      0.00
  -29    3    1     -0.26      0.00
  -27    3    1     -1.27      0.00
  -25    3    1      0.48      0.00
  -23    3    1     -1.79      0.00
  -21    3    1      0.68      0.00
  -19    3    1     -1.39      0.00
  -17    3    1     -3.92      0.00
  -15    3    1     -1.66      0.00
  -13    3    1     10.57      0.00
  -11    3    1      1.17      0.00
   -9    3    1     -9.60      0.00
   -7    3    1     -8.10      0.00
   -5    3    1     14.34      0.00
   -3    3    1     25.87      0.00
   -1    3    1      9.47      0.00
    1    3    1     33.68      0.00
    3    3    1      3.15      0.00
    5    3    1    -10.69      0.00
    7    3    1     -3.90      0.00
    9    3    1      9.38      0.00
   11    3    1      6.19      0.00
   13    3    1     -6.83      0.00
   15    3    1     -2.43      0.00
   17    3    1      2.24      0.00
   19    3    1      0.84      0.00
   21    3    1     -1.74      0.00
   23    3    1     -0.47      0.00
   25    3    1     -1.77      0.00
   27    3    1     -1.01      0.00
   29    3    1     -0.02      0.00
   31    3    1      0.05      0.00
  -32    4    1     -0.63      0.00
  -30    4    1      0.57      0.00
  -28    4    1      0.21      0.00
  -26    4    1      1.85      0.00
  -24    4    1     -0.07      0.00
  -22    4    1     -2.86      0.00
  -20    4    1     -3.93      0.00
  -18    4    1     -3.14      0.00
  -16    4    1      0.42      0.00
  -14    4    1      5.65      0.00
  -12    4    1      6.72      0.00
  -10    4    1     -1.95      0.00
   -8    4    1      6.82      0.00
   -6    4    1     15.03      0.00
   -4    4    1      2.64      0.00
   -2    4    1    -13.91      0.00
    0    4    1     -5.19      0.00
    2    4    1     18.36      0.00
    4    4    1     21.61      0.00
    6    4    1      4.60      0.00
    8    4    1      1.34      0.00
   10    4    1      8.88      0.00
   12    4    1      3.82      0.00
   14    4    1     -1.54      0.00
   16    4    1     -3.77      0.00
   18    4    1     -3.22      0.00
   20    4    1     -2.13      0.00
   22    4    1      2.75      0.00
   24    4    1      3.75      0.00
   26    4    1      0.59      0.00
   28    4    1      0.43      0.00
   30    4    1     -2.10      0.00
  -31    5    1     -1.46      0.00
  -29    5    1     -2.91      0.00
  -27    5    1      0.29      0.00
  -25    5    1      0.53      0.00
  -23    5    1     -1.04      0.00
  -21    5    1     -3.00      0.00
  -19    5    1     -0.29      0.00
  -17    5    1      1.81      0.00
  -15    5    1      3.39      0.00
  -13    5    1     -3.33      0.00
  -11    5    1     -4.73      0.00
   -9    5    1     10.68      0.00
   -7    5    1     11.36      0.00
   -5    5    1      8.64      0.00
   -3    5    1      2.17      0.00
   -1    5    1      0.03      0.00
    1    5    1      4.20      0.00
    3    5    1     13.98      0.00
    5    5    1     14.86      0.00
    7    5    1      5.02      0.00
    9    5    1     -9.60      0.00
   11    5    1      0.08      0.00
   13    5    1      4.06      0.00
   15    5    1      0.17      0.00
   17    5    1     -2.71      0.00
   19    5    1     -1.97      0.00
   21    5    1      1.62      0.00
   23    5    1      2.06      0.00
   25    5    1     -0.14      0.00
   27    5    1     -2.08      0.00
   29    5    1     -0.89      0.00
  -30    6    1     -2.09      0.00
  -28    6    1     -0.43      0.00
  -26    6    1      4.15      0.00
  -24    6    1      0.49      0.00
  -22    6    1     -5.45      0.00
  -20    6    1      1.26      0.00
  -18    6    1      5.68      0.00
  -16    6    1      0.23      0.00
  -14    6    1      0.77      0.00
  -12    6    1     -3.75      0.00
  -10    6    1     -2.02      0.00
   -8    6    1      8.29      0.00
   -6    6    1      5.98      0.00
   -4    6    1      3.42      0.00
   -2    6    1     -0.51      0.00
    0    6    1     -0.43      0.00
    2    6    1      2.54      0.00
    4    6    1      7.23      0.00
    6    6    1      5.99      0.00
    8    6    1     -4.75      0.00
   10    6    1      0.59      0.00
   12    6    1      2.28      0.00
   14    6    1      2.67      0.00
   16    6    1      4.60      0.00
   18    6    1     -2.19      0.00
   20    6    1     -2.08      0.00
   22    6    1      3.53      0.00
   24    6    1      2.25      0.00
   26    6    1     -1.45      0.00
   28    6    1     -2.86      0.00
  -29    7    1      0.01      0.00
  -27    7    1      1.14      0.00
  -25    7    1      1.80      0.00
  -23    7    1     -0.49      0.00
  -21    7    1     -0.42      0.00
  -19    7    1      2.45      0.00
  -17    7    1      1.18      0.00
  -15    7    1     -2.48      0.00
  -13    7    1     -1.33      0.00
  -11    7    1      0.86      0.00
   -9    7    1     -5.35      0.00
   -7    7    1      1.19      0.00
   -5    7    1      5.82      0.00
   -3    7    1     -1.72      0.00
   -1    7    1     -4.30      0.00
    1    7    1      0.78      0.00
    3    7    1      3.31      0.00
    5    7    1     -3.75      0.00
    7    7    1     -2.94      0.00
    9    7    1      1.92      0.00
   11    7    1     -2.83      0.00
   13    7    1      0.53      0.00
   15    7    1      3.60      0.00
   17    7    1      1.69      0.00
   19    7    1     -0.29      0.00
   21    7    1      0.37      0.00
   23    7    1      0.46      0.00
   25    7    1      0.33      0.00
   27    7    1      0.81      0.00
  -28    8    1      3.70      0.00
  -26    8    1      3.84      0.00
  -24    8    1      0.77      0.00
  -22    8    1      2.45      0.00
  -20    8    1      3.76      0.00
  -18    8    1     -1.59      0.00
  -16    8    1     -1.18      0.00
  -14    8    1      6.24      0.00
  -12    8    1      4.92      0.00
  -10    8    1      3.39      0.00
   -8    8    1     -0.96      0.00
   -6    8    1      0.68      0.00
   -4    8    1      0.05      0.00
   -2    8    1     -3.39      0.00
    0    8    1     -3.27      0.00
    2    8    1      0.38      0.00
    4    8    1     -1.45      0.00
    6    8    1     -0.19      0.00
    8    8    1      5.07      0.00
   10    8    1      3.53      0.00
   12    8    1      3.15      0.00
   14    8    1     -2.62      0.00
   16    8    1      2.85      0.00
   18    8    1      3.95      0.00
   20    8    1     -0.02      0.00
   22    8    1      1.38      0.00
   24    8    1      2.69      0.00
   26    8    1      0.37      0.00
  -25    9    1      1.57      0.00
  -23    9    1      1.71      0.00
  -21    9    1      0.14      0.00
  -19    9    1     -1.22      0.00
  -17    9    1     -2.59      0.00
  -15    9    1     -1.52      0.00
  -13    9    1      3.63      0.00
  -11    9    1      5.73      0.00
   -9    9    1      4.99      0.00
   -7    9    1      1.78      0.00
   -5    9    1     -3.08      0.00
   -3    9    1     -0.79      0.00
   -1    9    1      1.89      0.00
    1    9    1     -2.88      0.00
    3    9    1     -2.61      0.00
    5    9    1      4.05      0.00
    7    9    1      5.22      0.00
    9    9    1      4.79      0.00
   11    9    1      1.60      0.00
   13    9    1     -3.17      0.00
   15    9    1     -1.52      0.00
   17    9    1      1.77      0.00
   19    9    1      0.43      0.00
   21    9    1     -0.22      0.00
   23    9    1     -0.06      0.00
  -24   10    1      0.81      0.00
  -22   10    1      1.54      0.00
  -20   10    1     -0.59      0.00
  -18   10    1     -2.64      0.00
  -16   10    1     -2.50      0.00
  -14   10    1     -1.57      0.00
  -12   10    1      6.33      0.00
  -10   10    1      2.85      0.00
   -8   10    1      0.75      0.00
   -6   10    1     -0.98      0.00
   -4   10    1     -2.68      0.00
   -2   10    1      2.52      0.00
    0   10    1      1.21      0.00
    2   10    1     -4.22      0.00
    4   10    1      0.77      0.00
    6   10    1      2.18      0.00
    8   10    1      3.72      0.00
   10   10    1      4.36      0.00
   12   10    1     -2.52      0.00
   14   10    1     -0.91      0.00
   16   10    1     -2.17      0.00
   18   10    1      2.11      0.00
   20   10    1      1.44      0.00
   22   10    1     -2.29      0.00
  -19   11    1      3.83      0.00
  -17   11    1      0.98      0.00
  -15   11    1     -2.19      0.00
  -13   11    1      1.30      0.00
  -11   11    1      5.12      0.00
   -9   11    1      2.46      0.00
   -7   11    1     -2.15      0.00
   -5   11    1     -3.58      0.00
   -3   11    1     -2.88      0.00
   -1   11    1     -2.33      0.00
    1   11    1     -2.41      0.00
    3   11    1     -2.70      0.00
    5   11    1     -1.89      0.00
    7   11    1      2.33      0.00
    9   11    1      3.17      0.00
   11   11    1     -0.67      0.00
   13   11    1      0.12      0.00
   15   11    1      3.46      0.00
   17   11    1      1.27      0.00
   19   11    1     -0.38      0.00
  -16   12    1      0.50      0.00
  -14   12    1      2.34      0.00
  -12   12    1      0.95      0.00
  -10   12    1     -2.05      0.00
   -8   12    1     -4.53      0.00
   -6   12    1     -0.74      0.00
   -4   12    1     -3.76      0.00
   -2   12    1     -6.68      0.00
    0   12    1     -5.28      0.00
    2   12    1     -0.72      0.00
    4   12    1     -3.74      0.00
    6   12    1     -6.96      0.00
    8   12    1     -0.21      0.00
   10   12    1      0.93      0.00
   12   12    1      0.38      0.00
   14   12    1     -0.48      0.00
   -9   13    1     -8.79      0.00
   -7   13    1     -4.92      0.00
   -5   13    1     -3.90      0.00
  -36    0    2     -1.66      0.00
  -34    0    2      1.40      0.00
  -32    0    2     -0.63      0.00
  -30    0    2      3.49      0.00
  -28    0    2      1.92      0.00
  -26    0    2     -1.27      0.00
  -24    0    2     -3.83      0.00
  -22    0    2     -0.96      0.00
  -20    0    2     -1.16      0.00
  -18    0    2      7.38      0.00
  -16    0    2     13.18      0.00
  -14    0    2     18.32      0.00
  -12    0    2    -13.60      0.00
  -10    0    2    -14.07      0.00
   -8    0    2     11.87      0.00
   -6    0    2    -42.81      0.00
   -4    0    2   -292.94      0.00
   -2    0    2   -323.65      0.00
    0    0    2     -7.87      0.00
    2    0    2     34.13      0.00
    4    0    2    -25.09      0.00
    6    0    2     -6.42      0.00
    8    0    2     25.83      0.00
   10    0    2     24.68      0.00
   12    0    2      6.01      0.00
   14    0    2     -1.21      0.00
   16    0    2     -4.18      0.00
   18    0    2      1.46      0.00
   20    0    2     -0.79      0.00
   22    0    2      2.74      0.00
   24    0    2      1.94      0.00
   26    0    2     -6.93      0.00
   28    0    2     -3.79      0.00
   30    0    2      1.11      0.00
   32    0    2     -1.37      0.00
  -35    1    2     -0.08      0.00
  -33    1    2      0.17      0.00
  -31    1    2     -1.13      0.00
  -29    1    2     -1.68      0.00
  -27    1    2     -1.95      0.00
  -25    1    2     -1.44      0.00
  -23    1    2     -0.61      0.00
  -21    1    2     -2.47      0.00
  -19    1    2      2.11      0.00
  -17    1    2      7.81      0.00
  -15    1    2      4.83      0.00
  -13    1    2     -1.65      0.00
  -11    1    2      0.60      0.00
   -9    1    2      6.63      0.00
   -7    1    2    -12.42      0.00
   -5    1    2    -72.79      0.00
   -3    1    2   -128.87      0.00
    1    1    2    -18.94      0.00
    3    1    2      5.84      0.00
    5    1    2     -1.25      0.00
    7    1    2     -5.33      0.00
    9    1    2      5.30      0.00
   11    1    2     10.30      0.00
   13    1    2      3.73      0.00
   15    1    2     -1.90      0.00
   17    1    2      0.45      0.00
   19    1    2      0.96      0.00
   21    1    2      0.23      0.00
   23    1    2      0.15      0.00
   25    1    2     -2.15      0.00
   27    1    2     -1.49      0.00
   29    1    2      0.36      0.00
   31    1    2      0.46      0.00
  -34    2    2     -0.19      0.00
  -32    2    2      1.01      0.00
  -30    2    2     -2.82      0.00
  -28    2    2     -2.91      0.00
  -26    2    2     -2.87      0.00
  -24    2    2      2.57      0.00
  -22    2    2      0.73      0.00
  -20    2    2      2.11      0.00
  -18    2    2     -0.97      0.00
  -16    2    2     -4.99      0.00
  -14    2    2    -11.07      0.00
  -12    2    2      6.46      0.00
  -10    2    2      7.09      0.00
   -8    2    2     -3.35      0.00
   -6    2    2    -20.72      0.00
   -4    2    2     25.34      0.00
   -2    2    2     37.16      0.00
    0    2    2    -55.29      0.00
    2    2    2    -19.48      0.00
    4    2    2      8.30      0.00
    6    2    2      2.37      0.00
    8    2    2    -10.78      0.00
   10    2    2     -7.95      0.00
   12    2    2      3.87      0.00
   14    2    2      1.69      0.00
   16    2    2      0.28      0.00
   18    2    2     -0.16      0.00
   20    2    2      0.05      0.00
   22    2    2     -2.64      0.00
   24    2    2     -1.45      0.00
   26    2    2      1.46      0.00
   28    2    2      0.80      0.00
   30    2    2     -0.38      0.00
  -35    3    2      4.95      0.00
  -33    3    2      0.85      0.00
  -31    3    2     -0.72      0.00
  -29    3    2     -1.89      0.00
  -27    3    2     -3.77      0.00
  -25    3    2      0.24      0.00
  -23    3    2      3.67      0.00
  -21    3    2      3.89      0.00
  -19    3    2     -0.82      0.00
  -17    3    2     -7.44      0.00
  -15    3    2     -9.26      0.00
  -13    3    2     -2.35      0.00
  -11    3    2     -1.96      0.00
   -9    3    2    -12.10      0.00
   -7    3    2     -1.83      0.00
   -5    3    2     18.63      0.00
   -3    3    2     36.81      0.00
   -1    3    2     19.11      0.00
    1    3    2    -14.64      0.00
    3    3    2    -23.00      0.00
    5    3    2     -4.24      0.00
    7    3    2      4.06      0.00
    9    3    2     -9.85      0.00
   11    3    2    -10.07      0.00
   13    3    2     -1.20      0.00
   15    3    2      3.16      0.00
   17    3    2      2.58      0.00
   19    3    2     -0.51      0.00
   21    3    2     -7.22      0.00
   23    3    2     -6.20      0.00
   25    3    2     -0.34      0.00
   27    3    2      1.20      0.00
   29    3    2      2.93      0.00
   31    3    2      0.45      0.00
  -34    4    2      2.50      0.00
  -32    4    2      0.65      0.00
  -30    4    2      2.41      0.00
  -28    4    2     -0.67      0.00
  -26    4    2      0.70      0.00
  -24    4    2      1.49      0.00
  -22    4    2      2.81      0.00
  -20    4    2     -2.87      0.00
  -18    4    2     -4.27      0.00
  -16    4    2     -2.46      0.00
  -14    4    2      4.96      0.00
  -12    4    2     -4.21      0.00
  -10    4    2    -16.53      0.00
   -8    4    2     -9.18      0.00
   -6    4    2      6.06      0.00
   -4    4    2     18.19      0.00
   -2    4    2     17.37      0.00
    0    4    2     14.40      0.00
    2    4    2    -10.97      0.00
    4    4    2    -14.28      0.00
    6    4    2     -3.56      0.00
    8    4    2      8.40      0.00
   10    4    2     -4.43      0.00
   12    4    2     -9.41      0.00
   14    4    2     -1.58      0.00
   16    4    2      3.84      0.00
   18    4    2      0.52      0.00
   20    4    2     -3.41      0.00
   22    4    2     -1.97      0.00
   24    4    2     -0.02      0.00
   26    4    2      1.84      0.00
   28    4    2      2.73      0.00
   30    4    2      1.58      0.00
  -33    5    2      1.68      0.00
  -31    5    2      1.51      0.00
  -29    5    2      0.12      0.00
  -27    5    2     -1.12      0.00
  -25    5    2      2.81      0.00
  -23    5    2      2.70      0.00
  -21    5    2     -4.24      0.00
  -19    5    2     -3.51      0.00
  -17    5    2      0.76      0.00
  -15    5    2      1.69      0.00
  -13    5    2      3.56      0.00
  -11    5    2     -7.66      0.00
   -9    5    2     -9.01      0.00
   -7    5    2     -0.68      0.00
   -5    5    2     -4.21      0.00
   -3    5    2     -5.85      0.00
   -1    5    2      4.55      0.00
    1    5    2     12.13      0.00
    3    5    2      0.95      0.00
    5    5    2     -7.50      0.00
    7    5    2      1.13      0.00
    9    5    2      0.19      0.00
   11    5    2     -1.80      0.00
   13    5    2     -3.25      0.00
   15    5    2     -4.33      0.00
   17    5    2      0.47      0.00
   19    5    2      0.44      0.00
   21    5    2      0.51      0.00
   23    5    2      3.20      0.00
   25    5    2      3.98      0.00
   27    5    2      4.67      0.00
   29    5    2      2.58      0.00
  -32    6    2     -1.55      0.00
  -30    6    2     -0.29      0.00
  -28    6    2      0.18      0.00
  -26    6    2     -0.60      0.00
  -24    6    2      0.48      0.00
  -22    6    2     -2.25      0.00
  -20    6    2     -2.49      0.00
  -18    6    2      2.16      0.00
  -16    6    2      6.11      0.00
  -14    6    2      1.53      0.00
  -12    6    2     -0.34      0.00
  -10    6    2      6.52      0.00
   -8    6    2     -0.43      0.00
   -6    6    2      2.58      0.00
   -4    6    2      8.92      0.00
   -2    6    2      8.01      0.00
    0    6    2      6.96      0.00
    2    6    2      7.06      0.00
    4    6    2      8.11      0.00
    6    6    2     -0.18      0.00
    8    6    2     -5.37      0.00
   10    6    2      5.53      0.00
   12    6    2      2.06      0.00
   14    6    2     -2.88      0.00
   16    6    2     -2.35      0.00
   18    6    2      0.51      0.00
   20    6    2      1.36      0.00
   22    6    2      2.31      0.00
   24    6    2      2.51      0.00
   26    6    2      1.21      0.00
   28    6    2      2.31      0.00
  -31    7    2     -0.59      0.00
  -29    7    2     -1.96      0.00
  -27    7    2      1.33      0.00
  -25    7    2     -1.92      0.00
  -23    7    2     -7.37      0.00
  -21    7    2     -3.07      0.00
  -19    7    2      2.06      0.00
  -17    7    2     -0.83      0.00
  -15    7    2     -1.64      0.00
  -13    7    2     -1.83      0.00
  -11    7    2      0.62      0.00
   -9    7    2      5.99      0.00
   -7    7    2      4.22      0.00
   -5    7    2      4.07      0.00
   -3    7    2      2.49      0.00
   -1    7    2      4.95      0.00
    1    7    2      5.91      0.00
    3    7    2      7.69      0.00
    5    7    2      2.72      0.00
    7    7    2     -2.92      0.00
    9    7    2      3.70      0.00
   11    7    2      2.83      0.00
   13    7    2      2.77      0.00
   15    7    2     -2.80      0.00
   17    7    2     -4.98      0.00
   19    7    2     -1.31      0.00
   21    7    2      0.99      0.00
   23    7    2      1.32      0.00
   25    7    2      1.27      0.00
   27    7    2     -0.54      0.00
  -28    8    2      0.88      0.00
  -26    8    2     -1.09      0.00
  -24    8    2     -2.58      0.00
  -22    8    2     -2.59      0.00
  -20    8    2     -1.69      0.00
  -18    8    2     -0.01      0.00
  -16    8    2      1.00      0.00
  -14    8    2     -0.75      0.00
  -12    8    2     -1.25      0.00
  -10    8    2     -2.49      0.00
   -8    8    2      3.01      0.00
   -6    8    2      7.50      0.00
   -4    8    2      3.46      0.00
   -2    8    2      2.02      0.00
    0    8    2      5.31      0.00
    2    8    2      2.38      0.00
    4    8    2     -3.46      0.00
    6    8    2     -1.89      0.00
    8    8    2     -1.31      0.00
   10    8    2      0.32      0.00
   12    8    2      4.22      0.00
   14    8    2      0.58      0.00
   16    8    2     -1.74      0.00
   18    8    2      0.04      0.00
   20    8    2     -1.12      0.00
   22    8    2     -0.72      0.00
   24    8    2      2.30      0.00
  -27    9    2      1.88      0.00
  -25    9    2     -0.81      0.00
  -23    9    2      0.79      0.00
  -21    9    2      1.11      0.00
  -19    9    2      0.34      0.00
  -17    9    2      3.91      0.00
  -15    9    2      6.76      0.00
  -13    9    2      0.75      0.00
  -11    9    2      2.13      0.00
   -9    9    2      1.37      0.00
   -7    9    2      2.07      0.00
   -5    9    2      1.47      0.00
   -3    9    2     -3.76      0.00
   -1    9    2     -2.02      0.00
    1    9    2      2.66      0.00
    3    9    2     -1.68      0.00
    5    9    2      0.64      0.00
    7    9    2      1.32      0.00
    9    9    2      2.03      0.00
   11    9    2      5.18      0.00
   13    9    2      1.48      0.00
   15    9    2      5.52      0.00
   17    9    2      1.33      0.00
   19    9    2      0.64      0.00
   21    9    2      2.74      0.00
   23    9    2      2.87      0.00
  -24   10    2      2.21      0.00
  -22   10    2     -2.12      0.00
  -20   10    2     -2.51      0.00
  -18   10    2      2.29      0.00
  -16   10    2      3.07      0.00
  -14   10    2      2.63      0.00
  -12   10    2      2.78      0.00
  -10   10    2      2.62      0.00
   -8   10    2      3.06      0.00
   -6   10    2      2.82      0.00
   -4   10    2      3.59      0.00
   -2   10    2      3.73      0.00
    0   10    2     -0.44      0.00
    2   10    2     -0.55      0.00
    4   10    2      3.37      0.00
    6   10    2      2.64      0.00
    8   10    2      1.82      0.00
   10   10    2      2.23      0.00
   12   10    2      0.67      0.00
   14   10    2      1.01      0.00
   16   10    2      4.75      0.00
   18   10    2      2.94      0.00
   20   10    2     -0.18      0.00
  -21   11    2     -1.25      0.00
  -19   11    2     -1.39      0.00
  -17   11    2     -1.75      0.00
  -15   11    2     -0.46      0.00
  -13   11    2      3.73      0.00
  -11   11    2      1.63      0.00
   -9   11    2      1.20      0.00
   -7   11    2      1.19      0.00
   -5   11    2      1.71      0.00
   -3   11    2      3.53      0.00
   -1   11    2      1.50      0.00
    1   11    2     -2.42      0.00
    3   11    2      3.28      0.00
    5   11    2      3.17      0.00
    7   11    2      1.32      0.00
    9   11    2      2.14      0.00
   11   11    2      0.08      0.00
   13   11    2     -0.38      0.00
   15   11    2     -0.87      0.00
   17   11    2      4.18      0.00
  -16   12    2     -2.46      0.00
  -14   12    2      2.25      0.00
  -12   12    2      7.40      0.00
  -10   12    2      5.06      0.00
   -8   12    2      0.66      0.00
   -6   12    2      0.18      0.00
   -4   12    2      2.68      0.00
   -2   12    2      4.28      0.00
    0   12    2      1.24      0.00
    2   12    2     -1.62      0.00
    4   12    2      1.06      0.00
    6   12    2      4.65      0.00
    8   12    2      1.00      0.00
   10   12    2     -3.79      0.00
   12   12    2     -1.50      0.00
  -11   13    2      0.29      0.00
   -9   13    2      0.94      0.00
   -7   13    2      5.38      0.00
   -5   13    2     -0.78      0.00
   -3   13    2     -1.08      0.00
  -35    1    3      1.52      0.00
  -33    1    3      1.42      0.00
  -31    1    3      4.69      0.00
  -29    1    3      2.59      0.00
  -27    1    3      0.03      0.00
  -25    1    3     -3.59      0.00
  -23    1    3     -0.46      0.00
  -21    1    3     -0.35      0.00
  -19    1    3      6.94      0.00
  -17    1    3     10.61      0.00
  -15    1    3     11.38      0.00
  -13    1    3    -10.95      0.00
  -11    1    3      2.51      0.00
   -9    1    3     19.19      0.00
   -7    1    3    -30.24      0.00
   -5    1    3   -172.29      0.00
   -3    1    3   -117.87      0.00
   -1    1    3     76.03      0.00
    1    1    3     33.16      0.00
    3    1    3     -7.08      0.00
    5    1    3      9.20      0.00
    7    1    3     26.42      0.00
    9    1    3     15.43      0.00
   11    1    3      0.34      0.00
   13    1    3     -3.69      0.00
   15    1    3     -3.30      0.00
   17    1    3      0.39      0.00
   19    1    3     -0.73      0.00
   21    1    3      3.27      0.00
   23    1    3      1.43      0.00
   25    1    3     -5.24      0.00
   27    1    3     -0.12      0.00
   29    1    3      2.52      0.00
   31    1    3      0.98      0.00
  -36    2    3     -1.39      0.00
  -34    2    3      1.31      0.00
  -32    2    3      0.93      0.00
  -30    2    3      1.56      0.00
  -28    2    3      1.52      0.00
  -26    2    3     -0.44      0.00
  -24    2    3     -2.21      0.00
  -22    2    3     -2.88      0.00
  -20    2    3      5.30      0.00
  -18    2    3     10.48      0.00
  -16    2    3      5.31      0.00
  -14    2    3     -0.75      0.00
  -12    2    3      6.63      0.00
  -10    2    3     13.55      0.00
   -8    2    3     -3.95      0.00
   -6    2    3    -43.95      0.00
   -4    2    3    -72.42      0.00
   -2    2    3    -29.41      0.00
    0    2    3     21.98      0.00
    2    2    3     24.82      0.00
    4    2    3      1.72      0.00
    6    2    3     -4.47      0.00
    8    2    3     10.95      0.00
   10    2    3     11.55      0.00
   12    2    3      0.00      0.00
   14    2    3     -4.80      0.00
   16    2    3     -1.47      0.00
   18    2    3      0.96      0.00
   20    2    3      4.14      0.00
   22    2    3      3.16      0.00
   24    2    3     -0.91      0.00
   26    2    3      0.01      0.00
   28    2    3      1.25      0.00
   30    2    3      2.44      0.00
  -35    3    3     -0.29      0.00
  -33    3    3      1.86      0.00
  -31    3    3     -0.26      0.00
  -29    3    3      1.13      0.00
  -27    3    3      0.24      0.00
  -25    3    3      2.81      0.00
  -23    3    3     -0.03      0.00
  -21    3    3      4.18      0.00
  -19    3    3      2.09      0.00
  -17    3    3     -2.85      0.00
  -15    3    3     -7.84      0.00
  -13    3    3      6.24      0.00
  -11    3    3      7.60      0.00
   -9    3    3     -2.08      0.00
   -7    3    3    -18.22      0.00
   -5    3    3    -16.22      0.00
   -3    3    3    -18.52      0.00
   -1    3    3    -31.59      0.00
    1    3    3      3.19      0.00
    3    3    3      4.32      0.00
    5    3    3     -4.17      0.00
    7    3    3    -11.73      0.00
    9    3    3      2.56      0.00
   11    3    3      7.22      0.00
   13    3    3     -1.67      0.00
   15    3    3     -3.96      0.00
   17    3    3      1.07      0.00
   19    3    3      2.06      0.00
   21    3    3      1.07      0.00
   23    3    3      1.75      0.00
   25    3    3      0.94      0.00
   27    3    3     -0.23      0.00
   29    3    3      1.61      0.00
  -34    4    3     -0.34      0.00
  -32    4    3      1.77      0.00
  -30    4    3      1.57      0.00
  -28    4    3     -0.57      0.00
  -26    4    3      0.67      0.00
  -24    4    3      3.66      0.00
  -22    4    3      4.23      0.00
  -20    4    3      1.24      0.00
  -18    4    3     -2.25      0.00
  -16    4    3     -6.01      0.00
  -14    4    3     -1.92      0.00
  -12    4    3      3.99      0.00
  -10    4    3     -6.33      0.00
   -8    4    3     -6.01      0.00
   -6    4    3      8.55      0.00
   -4    4    3     12.38      0.00
   -2    4    3    -12.07      0.00
    0    4    3    -31.32      0.00
    2    4    3    -19.15      0.00
    4    4    3     -1.35      0.00
    6    4    3     -5.20      0.00
    8    4    3     -8.22      0.00
   10    4    3     -1.45      0.00
   12    4    3      3.42      0.00
   14    4    3      4.06      0.00
   16    4    3      2.87      0.00
   18    4    3     -0.29      0.00
   20    4    3     -5.14      0.00
   22    4    3     -2.83      0.00
   24    4    3      0.73      0.00
   26    4    3     -0.12      0.00
   28    4    3      1.84      0.00
  -33    5    3      2.49      0.00
  -31    5    3      3.73      0.00
  -29    5    3      0.72      0.00
  -27    5    3      1.54      0.00
  -25    5    3      2.24      0.00
  -23    5    3      2.80      0.00
  -21    5    3     -2.31      0.00
  -19    5    3     -2.81      0.00
  -17    5    3     -2.58      0.00
  -15    5    3      2.87      0.00
  -13    5    3     -1.26      0.00
  -11    5    3    -11.70      0.00
   -9    5    3     -7.27      0.00
   -7    5    3     -6.64      0.00
   -5    5    3     -2.13      0.00
   -3    5    3     -1.00      0.00
   -1    5    3    -10.08      0.00
    1    5    3    -19.94      0.00
    3    5    3    -13.75      0.00
    5    5    3      3.04      0.00
    7    5    3      8.09      0.00
    9    5    3     -5.60      0.00
   11    5    3     -2.47      0.00
   13    5    3      2.59      0.00
   15    5    3      4.18      0.00
   17    5    3     -0.63      0.00
   19    5    3     -2.99      0.00
   21    5    3     -1.35      0.00
   23    5    3      0.64      0.00
   25    5    3      1.13      0.00
   27    5    3     -0.20      0.00
  -32    6    3      1.27      0.00
  -30    6    3     -0.29      0.00
  -28    6    3     -3.05      0.00
  -26    6    3      4.31      0.00
  -24    6    3      4.24      0.00
  -22    6    3     -4.38      0.00
  -20    6    3     -2.64      0.00
  -18    6    3      1.95      0.00
  -16    6    3      1.00      0.00
  -14    6    3      4.39      0.00
  -12    6    3     -2.55      0.00
  -10    6    3     -8.75      0.00
   -8    6    3     -5.61      0.00
   -6    6    3     -2.89      0.00
   -4    6    3      1.88      0.00
   -2    6    3      0.61      0.00
    0    6    3     -3.41      0.00
    2    6    3     -8.50      0.00
    4    6    3     -2.46      0.00
    6    6    3      2.70      0.00
    8    6    3     -4.11      0.00
   10    6    3     -1.33      0.00
   12    6    3     -3.43      0.00
   14    6    3     -1.45      0.00
   16    6    3      2.68      0.00
   18    6    3     -0.97      0.00
   20    6    3     -2.93      0.00
   22    6    3      0.39      0.00
   24    6    3      1.82      0.00
   26    6    3      3.05      0.00
  -31    7    3      0.47      0.00
  -29    7    3     -2.77      0.00
  -27    7    3     -1.07      0.00
  -25    7    3      1.98      0.00
  -23    7    3     -0.62      0.00
  -21    7    3     -1.01      0.00
  -19    7    3      2.12      0.00
  -17    7    3      2.01      0.00
  -15    7    3     -0.03      0.00
  -13    7    3      1.26      0.00
  -11    7    3      3.38      0.00
   -9    7    3     -5.83      0.00
   -7    7    3     -3.94      0.00
   -5    7    3      3.54      0.00
   -3    7    3      2.44      0.00
   -1    7    3     -0.41      0.00
    1    7    3      1.49      0.00
    3    7    3      4.07      0.00
    5    7    3     -1.24      0.00
    7    7    3     -1.02      0.00
    9    7    3      1.74      0.00
   11    7    3     -4.28      0.00
   13    7    3     -3.90      0.00
   15    7    3     -1.33      0.00
   17    7    3     -0.21      0.00
   19    7    3      0.37      0.00
   21    7    3      0.62      0.00
   23    7    3     -0.70      0.00
   25    7    3     -0.74      0.00
  -30    8    3     -6.28      0.00
  -28    8    3     -0.88      0.00
  -26    8    3     -0.69      0.00
  -24    8    3     -3.25      0.00
  -22    8    3      0.27      0.00
  -20    8    3      2.86      0.00
  -18    8    3     -3.56      0.00
  -16    8    3     -7.68      0.00
  -14    8    3     -3.51      0.00
  -12    8    3     -1.23      0.00
  -10    8    3      0.10      0.00
   -8    8    3     -1.18      0.00
   -6    8    3      0.91      0.00
   -4    8    3      3.88      0.00
   -2    8    3      3.19      0.00
    0    8    3     -0.10      0.00
    2    8    3      2.32      0.00
    4    8    3     -2.55      0.00
    6    8    3     -4.31      0.00
    8    8    3     -1.76      0.00
   10    8    3     -1.65      0.00
   12    8    3     -0.37      0.00
   14    8    3     -5.54      0.00
   16    8    3     -0.75      0.00
   18    8    3      0.55      0.00
   20    8    3     -0.51      0.00
   22    8    3     -0.41      0.00
   24    8    3      0.65      0.00
  -27    9    3     -2.65      0.00
  -25    9    3     -0.04      0.00
  -23    9    3      3.33      0.00
  -21    9    3      2.17      0.00
  -19    9    3      1.23      0.00
  -17    9    3      0.63      0.00
  -15    9    3     -4.90      0.00
  -13    9    3     -5.73      0.00
  -11    9    3     -2.59      0.00
   -9    9    3     -0.01      0.00
   -7    9    3      1.63      0.00
   -5    9    3     -0.43      0.00
   -3    9    3     -0.29      0.00
   -1    9    3      4.08      0.00
    1    9    3      0.79      0.00
    3    9    3     -4.24      0.00
    5    9    3     -3.87      0.00
    7    9    3     -3.08      0.00
    9    9    3      0.38      0.00
   11    9    3      2.65      0.00
   13    9    3     -0.40      0.00
   15    9    3     -1.32      0.00
   17    9    3      2.08      0.00
   19    9    3      1.42      0.00
   21    9    3      1.09      0.00
  -24   10    3      1.49      0.00
  -22   10    3      1.87      0.00
  -20   10    3      3.92      0.00
  -18   10    3      3.41      0.00
  -16   10    3     -1.53      0.00
  -14   10    3     -6.08      0.00
  -12   10    3     -0.30      0.00
  -10   10    3      0.27      0.00
   -8   10    3     -0.03      0.00
   -6   10    3      1.19      0.00
   -4   10    3     -2.22      0.00
   -2   10    3      0.79      0.00
    0   10    3      3.75      0.00
    2   10    3     -2.41      0.00
    4   10    3     -0.43      0.00
    6   10    3     -3.08      0.00
    8   10    3     -2.88      0.00
   10   10    3      1.06      0.00
   12   10    3      1.40      0.00
   14   10    3      0.97      0.00
   16   10    3     -4.05      0.00
   18   10    3      1.57      0.00
  -21   11    3     -1.62      0.00
  -19   11    3      3.70      0.00
  -17   11    3      0.20      0.00
  -15   11    3     -4.59      0.00
  -13   11    3     -4.30      0.00
  -11   11    3     -0.55      0.00
   -9   11    3      3.93      0.00
   -7   11    3      4.58      0.00
   -5   11    3      1.44      0.00
   -3   11    3      1.32      0.00
   -1   11    3      2.80      0.00
    1   11    3      3.04      0.00
    3   11    3      1.88      0.00
    5   11    3     -1.20      0.00
    7   11    3     -1.75      0.00
    9   11    3     -0.31      0.00
   11   11    3     -2.22      0.00
   13   11    3     -2.58      0.00
   15   11    3     -0.34      0.00
  -18   12    3     -2.56      0.00
  -16   12    3     -3.47      0.00
  -14   12    3     -0.74      0.00
  -12   12    3      1.96      0.00
  -10   12    3      0.65      0.00
   -8   12    3      1.53      0.00
   -6   12    3      4.94      0.00
   -4   12    3      3.63      0.00
   -2   12    3      1.98      0.00
    0   12    3      0.21      0.00
    2   12    3      6.11      0.00
    4   12    3      3.89      0.00
    6   12    3     -2.09      0.00
    8   12    3     -0.30      0.00
   10   12    3      0.70      0.00
   12   12    3     -1.58      0.00
  -11   13    3      5.10      0.00
   -9   13    3      1.32      0.00
   -7   13    3      0.74      0.00
   -5   13    3      2.62      0.00
   -3   13    3      4.69      0.00
  -36    0    4     -4.02      0.00
  -34    0    4     -3.85      0.00
  -32    0    4     -4.04      0.00
  -30    0    4      0.12      0.00
  -28    0    4      3.59      0.00
  -26    0    4      4.50      0.00
  -24    0    4      0.44      0.00
  -22    0    4     -0.32      0.00
  -20    0    4     -7.98      0.00
  -18    0    4    -10.08      0.00
  -16    0    4     -6.33      0.00
  -14    0    4     14.64      0.00
  -12    0    4     -8.38      0.00
  -10    0    4     -4.56      0.00
   -8    0    4    111.23      0.00
   -6    0    4    257.81      0.00
   -4    0    4    124.70      0.00
   -2    0    4    -67.52      0.00
    0    0    4     -3.99      0.00
    2    0    4     16.77      0.00
    4    0    4    -15.98      0.00
    6    0    4    -31.86      0.00
    8    0    4    -12.98      0.00
   10    0    4      0.85      0.00
   12    0    4      5.63      0.00
   14    0    4      2.74      0.00
   16    0    4     -1.74      0.00
   18    0    4     -0.90      0.00
   20    0    4     -5.55      0.00
   22    0    4     -0.40      0.00
   24    0    4      6.65      0.00
   26    0    4     -1.78      0.00
   28    0    4     -0.53      0.00
   30    0    4      2.22      0.00
  -37    1    4     -1.04      0.00
  -35    1    4     -1.47      0.00
  -33    1    4      0.53      0.00
  -31    1    4      1.26      0.00
  -29    1    4      2.53      0.00
  -27    1    4      2.38      0.00
  -25    1    4      2.41      0.00
  -23    1    4      1.46      0.00
  -21    1    4     -4.75      0.00
  -19    1    4     -5.67      0.00
  -17    1    4     -1.53      0.00
  -15    1    4      0.55      0.00
  -13    1    4     -4.56      0.00
  -11    1    4     -6.31      0.00
   -9    1    4     19.22      0.00
   -7    1    4     74.19      0.00
   -5    1    4     95.10      0.00
   -3    1    4     42.16      0.00
   -1    1    4     -1.63      0.00
    1    1    4     -3.08      0.00
    3    1    4      3.90      0.00
    5    1    4     -0.73      0.00
    7    1    4     -9.90      0.00
    9    1    4     -7.61      0.00
   11    1    4      0.38      0.00
   13    1    4      2.37      0.00
   15    1    4     -0.28      0.00
   17    1    4     -0.67      0.00
   19    1    4     -1.63      0.00
   21    1    4     -0.62      0.00
   23    1    4      1.38      0.00
   25    1    4     -0.74      0.00
   27    1    4      0.14      0.00
   29    1    4      1.90      0.00
  -36    2    4     -0.14      0.00
  -34    2    4      0.71      0.00
  -32    2    4      3.67      0.00
  -30    2    4      2.91      0.00
  -28    2    4      1.18      0.00
  -26    2    4     -2.50      0.00
  -24    2    4      0.79      0.00
  -22    2    4     -1.16      0.00
  -20    2    4      4.69      0.00
  -18    2    4      6.87      0.00
  -16    2    4      5.28      0.00
  -14    2    4     -9.63      0.00
  -12    2    4     -1.67      0.00
  -10    2    4      3.43      0.00
   -8    2    4     -3.91      0.00
   -6    2    4    -32.68      0.00
   -4    2    4      8.28      0.00
   -2    2    4     54.63      0.00
    0    2    4      2.08      0.00
    2    2    4     -5.54      0.00
    4    2    4      3.35      0.00
    6    2    4     12.12      0.00
    8    2    4     -0.27      0.00
   10    2    4     -4.37      0.00
   12    2    4     -0.01      0.00
   14    2    4      1.25      0.00
   16    2    4      0.30      0.00
   18    2    4      0.93      0.00
   20    2    4      2.54      0.00
   22    2    4      0.85      0.00
   24    2    4     -1.64      0.00
   26    2    4      1.35      0.00
   28    2    4      1.24      0.00
  -37    3    4     -2.42      0.00
  -35    3    4      1.08      0.00
  -33    3    4     -0.13      0.00
  -31    3    4      2.35      0.00
  -29    3    4      3.52      0.00
  -27    3    4     -0.86      0.00
  -25    3    4     -3.50      0.00
  -23    3    4     -1.23      0.00
  -21    3    4      5.24      0.00
  -19    3    4      8.73      0.00
  -17    3    4      6.59      0.00
  -15    3    4      0.14      0.00
  -13    3    4      2.25      0.00
  -11    3    4      4.48      0.00
   -9    3    4     -9.62      0.00
   -7    3    4    -28.74      0.00
   -5    3    4    -32.46      0.00
   -3    3    4      0.20      0.00
   -1    3    4     23.65      0.00
    1    3    4     13.23      0.00
    3    3    4     -5.46      0.00
    5    3    4      1.15      0.00
    7    3    4     12.78      0.00
    9    3    4      6.18      0.00
   11    3    4     -1.95      0.00
   13    3    4     -2.98      0.00
   15    3    4     -0.50      0.00
   17    3    4      4.75      0.00
   19    3    4      8.28      0.00
   21    3    4      3.47      0.00
   23    3    4     -0.85      0.00
   25    3    4     -0.39      0.00
   27    3    4     -1.53      0.00
   29    3    4      0.52      0.00
  -36    4    4     -0.86      0.00
  -34    4    4     -0.67      0.00
  -32    4    4     -2.40      0.00
  -30    4    4      0.67      0.00
  -28    4    4     -0.77      0.00
  -26    4    4     -1.26      0.00
  -24    4    4     -1.13      0.00
  -22    4    4      5.85      0.00
  -20    4    4      3.08      0.00
  -18    4    4      1.23      0.00
  -16    4    4     -0.82      0.00
  -14    4    4     10.76      0.00
  -12    4    4     14.16      0.00
  -10    4    4      1.57      0.00
   -8    4    4     -7.73      0.00
   -6    4    4    -13.90      0.00
   -4    4    4    -16.05      0.00
   -2    4    4     -6.42      0.00
    0    4    4     13.44      0.00
    2    4    4      8.23      0.00
    4    4    4     -4.23      0.00
    6    4    4     -3.42      0.00
    8    4    4     11.88      0.00
   10    4    4      6.16      0.00
   12    4    4     -2.49      0.00
   14    4    4     -3.37      0.00
   16    4    4      3.83      0.00
   18    4    4      4.02      0.00
   20    4    4      1.42      0.00
   22    4    4     -0.25      0.00
   24    4    4     -1.72      0.00
   26    4    4     -2.21      0.00
   28    4    4     -0.63      0.00
  -35    5    4     -0.05      0.00
  -33    5    4      1.22      0.00
  -31    5    4      0.92      0.00
  -29    5    4     -1.43      0.00
  -27    5    4     -4.31      0.00
  -25    5    4      1.07      0.00
  -23    5    4      4.77      0.00
  -21    5    4      0.97      0.00
  -19    5    4     -1.32      0.00
  -17    5    4     -2.25      0.00
  -15    5    4      0.30      0.00
  -13    5    4     10.76      0.00
  -11    5    4      7.72      0.00
   -9    5    4      4.06      0.00
   -7    5    4      7.69      0.00
   -5    5    4     -0.06      0.00
   -3    5    4    -14.35      0.00
   -1    5    4    -13.11      0.00
    1    5    4      2.23      0.00
    3    5    4      4.46      0.00
    5    5    4     -0.61      0.00
    7    5    4      2.22      0.00
    9    5    4      1.51      0.00
   11    5    4      4.48      0.00
   13    5    4      2.37      0.00
   15    5    4     -0.77      0.00
   17    5    4      0.20      0.00
   19    5    4     -1.77      0.00
   21    5    4     -3.99      0.00
   23    5    4     -3.51      0.00
   25    5    4     -5.32      0.00
   27    5    4     -3.28      0.00
  -34    6    4      1.38      0.00
  -32    6    4      0.73      0.00
  -30    6    4      1.07      0.00
  -28    6    4     -0.48      0.00
  -26    6    4     -0.11      0.00
  -24    6    4      3.74      0.00
  -22    6    4     -0.77      0.00
  -20    6    4     -4.62      0.00
  -18    6    4     -4.50      0.00
  -16    6    4     -0.85      0.00
  -14    6    4     -2.19      0.00
  -12    6    4     -4.31      0.00
  -10    6    4      2.54      0.00
   -8    6    4     -4.26      0.00
   -6    6    4     -7.48      0.00
   -4    6    4     -6.32      0.00
   -2    6    4    -10.16      0.00
    0    6    4    -11.98      0.00
    2    6    4     -6.11      0.00
    4    6    4      5.61      0.00
    6    6    4      1.99      0.00
    8    6    4     -5.91      0.00
   10    6    4      1.32      0.00
   12    6    4      2.87      0.00
   14    6    4      1.40      0.00
   16    6    4     -1.28      0.00
   18    6    4     -1.40      0.00
   20    6    4     -2.70      0.00
   22    6    4     -2.29      0.00
   24    6    4     -2.67      0.00
   26    6    4     -5.10      0.00
  -31    7    4      1.56      0.00
  -29    7    4     -3.01      0.00
  -27    7    4      3.45      0.00
  -25    7    4      5.48      0.00
  -23    7    4      0.31      0.00
  -21    7    4     -0.20      0.00
  -19    7    4      3.98      0.00
  -17    7    4      3.07      0.00
  -15    7    4      0.94      0.00
  -13    7    4     -3.04      0.00
  -11    7    4     -4.66      0.00
   -9    7    4     -2.50      0.00
   -7    7    4     -2.10      0.00
   -5    7    4     -2.60      0.00
   -3    7    4     -6.12      0.00
   -1    7    4     -6.62      0.00
    1    7    4     -7.43      0.00
    3    7    4     -0.15      0.00
    5    7    4      0.51      0.00
    7    7    4     -3.83      0.00
    9    7    4     -1.28      0.00
   11    7    4     -0.85      0.00
   13    7    4      4.00      0.00
   15    7    4      2.41      0.00
   17    7    4      0.55      0.00
   19    7    4     -0.88      0.00
   21    7    4     -1.00      0.00
   23    7    4     -1.16      0.00
   25    7    4     -0.09      0.00
  -30    8    4     -2.13      0.00
  -28    8    4      1.04      0.00
  -26    8    4      1.71      0.00
  -24    8    4      1.88      0.00
  -22    8    4      2.17      0.00
  -20    8    4      0.27      0.00
  -18    8    4     -0.78      0.00
  -16    8    4      2.09      0.00
  -14    8    4      1.56      0.00
  -12    8    4     -0.60      0.00
  -10    8    4     -5.23      0.00
   -8    8    4     -5.20      0.00
   -6    8    4     -1.63      0.00
   -4    8    4     -2.21      0.00
   -2    8    4     -3.51      0.00
    0    8    4     -0.13      0.00
    2    8    4      1.33      0.00
    4    8    4      0.78      0.00
    6    8    4      1.75      0.00
    8    8    4     -2.08      0.00
   10    8    4     -4.43      0.00
   12    8    4     -0.63      0.00
   14    8    4     -0.40      0.00
   16    8    4     -0.23      0.00
   18    8    4      2.38      0.00
   20    8    4      0.07      0.00
   22    8    4     -2.62      0.00
  -29    9    4      1.36      0.00
  -27    9    4     -0.74      0.00
  -25    9    4     -0.85      0.00
  -23    9    4      1.10      0.00
  -21    9    4     -2.46      0.00
  -19    9    4     -5.67      0.00
  -17    9    4     -3.38      0.00
  -15    9    4      0.39      0.00
  -13    9    4     -2.74      0.00
  -11    9    4     -1.61      0.00
   -9    9    4     -1.03      0.00
   -7    9    4     -0.18      0.00
   -5    9    4      3.82      0.00
   -3    9    4      0.29      0.00
   -1    9    4     -2.50      0.00
    1    9    4      0.60      0.00
    3    9    4     -3.13      0.00
    5    9    4     -0.43      0.00
    7    9    4     -1.88      0.00
    9    9    4     -3.80      0.00
   11    9    4     -3.77      0.00
   13    9    4     -4.81      0.00
   15    9    4      0.55      0.00
   17    9    4     -1.17      0.00
   19    9    4     -0.34      0.00
   21    9    4     -1.31      0.00
  -26   10    4      2.04      0.00
  -24   10    4      5.34      0.00
  -22   10    4     -1.60      0.00
  -20   10    4     -5.32      0.00
  -18   10    4     -0.85      0.00
  -16   10    4     -2.23      0.00
  -14   10    4     -3.68      0.00
  -12   10    4     -2.69      0.00
  -10   10    4     -4.62      0.00
   -8   10    4     -4.12      0.00
   -6   10    4     -2.35      0.00
   -4   10    4     -1.60      0.00
   -2   10    4      1.15      0.00
    0   10    4     -1.06      0.00
    2   10    4     -4.08      0.00
    4   10    4     -1.99      0.00
    6   10    4     -0.42      0.00
    8   10    4     -1.53      0.00
   10   10    4     -1.14      0.00
   12   10    4     -2.44      0.00
   14   10    4     -4.05      0.00
   16   10    4     -0.07      0.00
   18   10    4      1.09      0.00
  -23   11    4      1.56      0.00
  -21   11    4      1.74      0.00
  -19   11    4      1.21      0.00
  -17   11    4     -0.42      0.00
  -15   11    4     -2.82      0.00
  -13   11    4     -0.68      0.00
  -11   11    4     -1.48      0.00
   -9   11    4     -3.55      0.00
   -7   11    4     -0.93      0.00
   -5   11    4     -1.52      0.00
   -3   11    4      0.09      0.00
   -1   11    4      1.04      0.00
    1   11    4     -4.06      0.00
    3   11    4     -0.15      0.00
    5   11    4     -0.62      0.00
    7   11    4     -2.63      0.00
    9   11    4     -1.01      0.00
   11   11    4      1.71      0.00
   13   11    4     -1.80      0.00
   15   11    4     -4.96      0.00
  -18   12    4     -0.35      0.00
  -16   12    4     -3.79      0.00
  -14   12    4     -4.42      0.00
  -12   12    4     -0.97      0.00
  -10   12    4      1.97      0.00
   -8   12    4      1.29      0.00
   -6   12    4     -2.85      0.00
   -4   12    4     -2.14      0.00
   -2   12    4      3.16      0.00
    0   12    4      2.30      0.00
    2   12    4     -1.77      0.00
    4   12    4     -1.96      0.00
    6   12    4      0.81      0.00
    8   12    4      1.84      0.00
   10   12    4      0.46      0.00
  -11   13    4     -4.01      0.00
   -9   13    4     -2.06      0.00
   -7   13    4      2.57      0.00
   -5   13    4     -0.69      0.00
   -3   13    4     -1.37      0.00
   -1   13    4     -2.32      0.00
  -37    1    5     -3.05      0.00
  -35    1    5     -3.67      0.00
  -33    1    5     -3.78      0.00
  -31    1    5     -1.31      0.00
  -29    1    5      1.87      0.00
  -27    1    5      2.78      0.00
  -25    1    5     -0.65      0.00
  -23    1    5     -1.15      0.00
  -21    1    5     -7.97      0.00
  -19    1    5     -7.09      0.00
  -17    1    5     -2.37      0.00
  -15    1    5      8.86      0.00
  -13    1    5    -11.50      0.00
  -11    1    5      0.38      0.00
   -9    1    5     70.07      0.00
   -7    1    5    117.00      0.00
   -5    1    5      2.96      0.00
   -3    1    5    -72.73      0.00
   -1    1    5     -3.83      0.00
    1    1    5      0.65      0.00
    3    1    5    -18.27      0.00
    5    1    5    -23.19      0.00
    7    1    5     -3.86      0.00
    9    1    5      3.74      0.00
   11    1    5      4.78      0.00
   13    1    5      1.57      0.00
   15    1    5     -0.46      0.00
   17    1    5     -1.22      0.00
   19    1    5     -4.53      0.00
   21    1    5      0.09      0.00
   23    1    5      3.35      0.00
   25    1    5     -4.14      0.00
   27    1    5     -1.39      0.00
  -38    2    5     -1.05      0.00
  -36    2    5     -2.68      0.00
  -34    2    5     -1.33      0.00
  -32    2    5     -2.55      0.00
  -30    2    5     -1.02      0.00
  -28    2    5      1.46      0.00
  -26    2    5      2.49      0.00
  -24    2    5     -1.22      0.00
  -22    2    5     -9.07      0.00
  -20    2    5     -7.61      0.00
  -18    2    5     -0.87      0.00
  -16    2    5      1.25      0.00
  -14    2    5     -4.72      0.00
  -12    2    5     -3.83      0.00
  -10    2    5     17.30      0.00
   -8    2    5     51.23      0.00
   -6    2    5     49.80      0.00
   -4    2    5      0.83      0.00
   -2    2    5    -21.55      0.00
    0    2    5     -8.39      0.00
    2    2    5      5.40      0.00
    4    2    5     -3.07      0.00
    6    2    5    -13.15      0.00
    8    2    5     -5.27      0.00
   10    2    5      4.27      0.00
   12    2    5      4.44      0.00
   14    2    5      0.76      0.00
   16    2    5     -1.84      0.00
   18    2    5     -3.77      0.00
   20    2    5     -1.27      0.00
   22    2    5      0.58      0.00
   24    2    5     -1.72      0.00
   26    2    5      0.01      0.00
   28    2    5      0.08      0.00
  -37    3    5     -1.69      0.00
  -35    3    5     -1.37      0.00
  -33    3    5      0.28      0.00
  -31    3    5     -1.60      0.00
  -29    3    5     -1.91      0.00
  -27    3    5     -1.87      0.00
  -25    3    5     -0.31      0.00
  -23    3    5     -5.50      0.00
  -21    3    5      0.86      0.00
  -19    3    5      3.11      0.00
  -17    3    5      1.89      0.00
  -15    3    5     -8.63      0.00
  -13    3    5     -1.23      0.00
  -11    3    5      8.94      0.00
   -9    3    5     12.92      0.00
   -7    3    5     13.12      0.00
   -5    3    5     26.21      0.00
   -3    3    5     24.20      0.00
   -1    3    5     -1.69      0.00
    1    3    5      2.14      0.00
    3    3    5      9.36      0.00
    5    3    5      6.31      0.00
    7    3    5     -8.46      0.00
    9    3    5     -2.59      0.00
   11    3    5      4.28      0.00
   13    3    5      2.06      0.00
   15    3    5     -2.52      0.00
   17    3    5     -0.62      0.00
   19    3    5     -0.79      0.00
   21    3    5     -0.83      0.00
   23    3    5     -0.40      0.00
   25    3    5      0.33      0.00
   27    3    5     -1.20      0.00
  -36    4    5     -1.73      0.00
  -34    4    5     -4.03      0.00
  -32    4    5     -0.40      0.00
  -30    4    5      2.05      0.00
  -28    4    5     -1.97      0.00
  -26    4    5     -4.81      0.00
  -24    4    5     -2.50      0.00
  -22    4    5      0.17      0.00
  -20    4    5      2.91      0.00
  -18    4    5      2.96      0.00
  -16    4    5     -3.62      0.00
  -14    4    5     -3.60      0.00
  -12    4    5      5.21      0.00
  -10    4    5     -1.52      0.00
   -8    4    5    -13.60      0.00
   -6    4    5     -0.21      0.00
   -4    4    5     29.16      0.00
   -2    4    5     31.40      0.00
    0    4    5     10.54      0.00
    2    4    5      1.40      0.00
    4    4    5      7.52      0.00
    6    4    5      5.33      0.00
    8    4    5     -1.70      0.00
   10    4    5     -5.69      0.00
   12    4    5     -4.30      0.00
   14    4    5     -1.54      0.00
   16    4    5      2.50      0.00
   18    4    5      3.89      0.00
   20    4    5      0.50      0.00
   22    4    5     -1.28      0.00
   24    4    5      0.34      0.00
   26    4    5     -1.58      0.00
  -35    5    5     -3.32      0.00
  -33    5    5     -4.04      0.00
  -31    5    5     -1.55      0.00
  -29    5    5     -1.67      0.00
  -27    5    5     -3.15      0.00
  -25    5    5     -1.91      0.00
  -23    5    5      5.34      0.00
  -21    5    5      3.12      0.00
  -19    5    5      2.14      0.00
  -17    5    5     -1.43      0.00
  -15    5    5      4.16      0.00
  -13    5    5      9.62      0.00
  -11    5    5      4.08      0.00
   -9    5    5      5.13      0.00
   -7    5    5      0.93      0.00
   -5    5    5      3.52      0.00
   -3    5    5     16.67      0.00
   -1    5    5     20.72      0.00
    1    5    5      6.31      0.00
    3    5    5     -8.23      0.00
    5    5    5     -0.93      0.00
    7    5    5      6.74      0.00
    9    5    5     -2.00      0.00
   11    5    5     -5.04      0.00
   13    5    5     -3.74      0.00
   15    5    5      2.24      0.00
   17    5    5      1.55      0.00
   19    5    5      0.61      0.00
   21    5    5     -0.54      0.00
   23    5    5      0.34      0.00
   25    5    5      1.53      0.00
  -34    6    5     -0.94      0.00
  -32    6    5     -0.03      0.00
  -30    6    5     -0.58      0.00
  -28    6    5     -4.55      0.00
  -26    6    5      0.13      0.00
  -24    6    5      3.35      0.00
  -22    6    5      0.58      0.00
  -20    6    5     -1.80      0.00
  -18    6    5     -1.86      0.00
  -16    6    5     -2.49      0.00
  -14    6    5      4.99      0.00
  -12    6    5      6.98      0.00
  -10    6    5      2.88      0.00
   -8    6    5     -0.24      0.00
   -6    6    5     -3.13      0.00
   -4    6    5      0.00      0.00
   -2    6    5      4.63      0.00
    0    6    5      6.76      0.00
    2    6    5      0.05      0.00
    4    6    5      0.49      0.00
    6    6    5      2.74      0.00
    8    6    5      0.32      0.00
   10    6    5      3.45      0.00
   12    6    5     -1.30      0.00
   14    6    5     -1.89      0.00
   16    6    5      1.53      0.00
   18    6    5      1.23      0.00
   20    6    5     -1.39      0.00
   22    6    5     -0.98      0.00
   24    6    5     -2.44      0.00
  -33    7    5      0.60      0.00
  -31    7    5      2.74      0.00
  -29    7    5     -1.72      0.00
  -27    7    5     -1.31      0.00
  -25    7    5      0.94      0.00
  -23    7    5     -1.94      0.00
  -21    7    5     -2.35      0.00
  -19    7    5      0.09      0.00
  -17    7    5     -0.24      0.00
  -15    7    5     -1.75      0.00
  -13    7    5      0.18      0.00
  -11    7    5      6.62      0.00
   -9    7    5      1.08      0.00
   -7    7    5     -3.09      0.00
   -5    7    5     -1.58      0.00
   -3    7    5     -2.61      0.00
   -1    7    5     -3.78      0.00
    1    7    5     -0.85      0.00
    3    7    5      2.63      0.00
    5    7    5     -0.58      0.00
    7    7    5      1.49      0.00
    9    7    5      6.39      0.00
   11    7    5      3.40      0.00
   13    7    5      1.37      0.00
   15    7    5     -0.22      0.00
   17    7    5     -0.89      0.00
   19    7    5     -0.17      0.00
   21    7    5      1.91      0.00
   23    7    5      0.23      0.00
  -32    8    5      3.90      0.00
  -30    8    5     -2.67      0.00
  -28    8    5      1.54      0.00
  -26    8    5      0.92      0.00
  -24    8    5     -2.31      0.00
  -22    8    5     -0.31      0.00
  -20    8    5      5.72      0.00
  -18    8    5      5.55      0.00
  -16    8    5      0.99      0.00
  -14    8    5      0.42      0.00
  -12    8    5      0.31      0.00
  -10    8    5      0.60      0.00
   -8    8    5     -1.60      0.00
   -6    8    5     -4.40      0.00
   -4    8    5     -2.09      0.00
   -2    8    5      0.22      0.00
    0    8    5     -1.05      0.00
    2    8    5      3.76      0.00
    4    8    5      2.61      0.00
    6    8    5      2.41      0.00
    8    8    5      2.47      0.00
   10    8    5      3.10      0.00
   12    8    5      4.17      0.00
   14    8    5     -0.87      0.00
   16    8    5     -0.13      0.00
   18    8    5     -1.04      0.00
   20    8    5      0.41      0.00
   22    8    5     -0.25      0.00
  -29    9    5      1.36      0.00
  -27    9    5     -3.59      0.00
  -25    9    5     -2.71      0.00
  -23    9    5      0.10      0.00
  -21    9    5     -0.93      0.00
  -19    9    5      0.45      0.00
  -17    9    5      6.74      0.00
  -15    9    5      4.24      0.00
  -13    9    5     -0.09      0.00
  -11    9    5      0.15      0.00
   -9    9    5     -0.17      0.00
   -7    9    5     -0.18      0.00
   -5    9    5     -2.23      0.00
   -3    9    5     -4.08      0.00
   -1    9    5      0.28      0.00
    1    9    5      2.41      0.00
    3    9    5      2.00      0.00
    5    9    5      1.38      0.00
    7    9    5     -0.52      0.00
    9    9    5     -1.63      0.00
   11    9    5     -0.04      0.00
   13    9    5     -0.24      0.00
   15    9    5     -2.04      0.00
   17    9    5     -0.96      0.00
   19    9    5     -1.38      0.00
  -26   10    5     -2.22      0.00
  -24   10    5     -2.34      0.00
  -22   10    5     -5.33      0.00
  -20   10    5     -0.70      0.00
  -18   10    5      4.10      0.00
  -16   10    5      4.47      0.00
  -14   10    5     -0.69      0.00
  -12   10    5      1.30      0.00
  -10   10    5      1.01      0.00
   -8   10    5     -1.98      0.00
   -6   10    5      1.21      0.00
   -4   10    5     -2.58      0.00
   -2   10    5     -2.94      0.00
    0   10    5      0.29      0.00
    2   10    5     -2.41      0.00
    4   10    5      2.71      0.00
    6   10    5      2.26      0.00
    8   10    5     -0.55      0.00
   10   10    5     -1.50      0.00
   12   10    5      2.89      0.00
   14   10    5      4.21      0.00
   16   10    5     -1.47      0.00
  -23   11    5     -4.07      0.00
  -21   11    5     -3.92      0.00
  -19   11    5      4.04      0.00
  -17   11    5      3.93      0.00
  -15   11    5      0.52      0.00
  -13   11    5     -1.83      0.00
  -11   11    5     -4.90      0.00
   -9   11    5     -3.10      0.00
   -7   11    5      0.73      0.00
   -5   11    5     -2.60      0.00
   -3   11    5     -4.41      0.00
   -1   11    5     -2.49      0.00
    1   11    5     -1.97      0.00
    3   11    5      0.11      0.00
    5   11    5      2.44      0.00
    7   11    5      1.39      0.00
    9   11    5      2.47      0.00
   11   11    5      3.03      0.00
   13   11    5      2.56      0.00
  -18   12    5      3.86      0.00
  -16   12    5     -1.52      0.00
  -14   12    5     -1.98      0.00
  -12   12    5      0.05      0.00
  -10   12    5     -3.97      0.00
   -8   12    5     -2.44      0.00
   -6   12    5     -1.21      0.00
   -4   12    5     -1.28      0.00
   -2   12    5     -1.01      0.00
    0   12    5     -4.45      0.00
    2   12    5     -0.04      0.00
    4   12    5      1.92      0.00
    6   12    5     -0.80      0.00
    8   12    5      0.25      0.00
  -11   13    5      2.25      0.00
   -9   13    5      1.58      0.00
   -7   13    5     -2.07      0.00
   -5   13    5     -1.87      0.00
   -3   13    5      2.06      0.00
   -1   13    5     -1.47      0.00
  -38    0    6      5.60      0.00
  -36    0    6      3.86      0.00
  -34    0    6      1.75      0.00
  -32    0    6     -1.29      0.00
  -30    0    6     -4.26      0.00
  -28    0    6     -2.51      0.00
  -26    0    6      0.45      0.00
  -24    0    6      1.96      0.00
  -22    0    6      7.48      0.00
  -20    0    6      4.84      0.00
  -18    0    6     -0.47      0.00
  -16    0    6     -5.24      0.00
  -14    0    6     16.95      0.00
  -12    0    6    -21.65      0.00
  -10    0    6   -119.48      0.00
   -8    0    6   -137.48      0.00
   -6    0    6     -1.30      0.00
   -4    0    6     47.65      0.00
   -2    0    6    -14.90      0.00
    0    0    6     -0.80      0.00
    2    0    6     24.24      0.00
    4    0    6     22.28      0.00
    6    0    6      0.18      0.00
    8    0    6     -5.79      0.00
   10    0    6     -6.17      0.00
   12    0    6     -0.75      0.00
   14    0    6      2.79      0.00
   16    0    6      5.19      0.00
   18    0    6      7.47      0.00
   20    0    6     -0.20      0.00
   22    0    6     -1.33      0.00
   24    0    6      4.88      0.00
   26    0    6     -3.79      0.00
  -39    1    6      2.09      0.00
  -37    1    6      1.61      0.00
  -35    1    6     -0.13      0.00
  -33    1    6     -1.27      0.00
  -31    1    6     -3.29      0.00
  -29    1    6     -2.60      0.00
  -27    1    6     -1.58      0.00
  -25    1    6      1.72      0.00
  -23    1    6      5.34      0.00
  -21    1    6      2.17      0.00
  -19    1    6     -0.94      0.00
  -17    1    6      0.50      0.00
  -15    1    6      6.46      0.00
  -13    1    6      4.29      0.00
  -11    1    6    -24.89      0.00
   -9    1    6    -62.38      0.00
   -7    1    6    -51.78      0.00
   -5    1    6     -9.93      0.00
   -3    1    6      2.68      0.00
   -1    1    6     -1.37      0.00
    1    1    6     -0.49      0.00
    3    1    6      6.59      0.00
    5    1    6      8.78      0.00
    7    1    6      2.04      0.00
    9    1    6     -3.44      0.00
   11    1    6     -2.46      0.00
   13    1    6      0.01      0.00
   15    1    6      1.24      0.00
   17    1    6      2.78      0.00
   19    1    6      1.22      0.00
   21    1    6      0.92      0.00
   23    1    6      1.60      0.00
   25    1    6     -3.47      0.00
   27    1    6     -3.61      0.00
  -38    2    6     -0.22      0.00
  -36    2    6     -2.11      0.00
  -34    2    6     -3.55      0.00
  -32    2    6     -2.35      0.00
  -30    2    6      0.14      0.00
  -28    2    6      0.31      0.00
  -26    2    6     -1.11      0.00
  -24    2    6      0.00      0.00
  -22    2    6     -7.25      0.00
  -20    2    6     -4.93      0.00
  -18    2    6     -0.41      0.00
  -16    2    6      7.68      0.00
  -14    2    6     -1.77      0.00
  -12    2    6      3.09      0.00
  -10    2    6     16.55      0.00
   -8    2    6     12.96      0.00
   -6    2    6    -29.99      0.00
   -4    2    6    -33.21      0.00
   -2    2    6      4.46      0.00
    0    2    6      1.88      0.00
    2    2    6     -7.43      0.00
    4    2    6     -7.24      0.00
    6    2    6      5.24      0.00
    8    2    6      1.88      0.00
   10    2    6     -1.32      0.00
   12    2    6     -0.99      0.00
   14    2    6     -0.97      0.00
   16    2    6     -2.41      0.00
   18    2    6     -2.23      0.00
   20    2    6     -0.33      0.00
   22    2    6      0.69      0.00
   24    2    6     -2.99      0.00
   26    2    6     -1.35      0.00
  -37    3    6     -0.62      0.00
  -35    3    6     -0.59      0.00
  -33    3    6     -4.82      0.00
  -31    3    6     -3.58      0.00
  -29    3    6      1.93      0.00
  -27    3    6      2.24      0.00
  -25    3    6     -2.34      0.00
  -23    3    6     -7.11      0.00
  -21    3    6     -7.16      0.00
  -19    3    6     -1.94      0.00
  -17    3    6      1.20      0.00
  -15    3    6     -2.76      0.00
  -13    3    6     -0.22      0.00
  -11    3    6     17.13      0.00
   -9    3    6     32.08      0.00
   -7    3    6     15.12      0.00
   -5    3    6    -17.06      0.00
   -3    3    6    -19.39      0.00
   -1    3    6     -2.42      0.00
    1    3    6      3.66      0.00
    3    3    6     -8.43      0.00
    5    3    6    -10.38      0.00
    7    3    6     -0.59      0.00
    9    3    6      4.11      0.00
   11    3    6      2.29      0.00
   13    3    6     -1.90      0.00
   15    3    6     -5.68      0.00
   17    3    6     -4.95      0.00
   19    3    6     -0.83      0.00
   21    3    6      1.01      0.00
   23    3    6      0.60      0.00
   25    3    6      2.21      0.00
  -38    4    6     -0.04      0.00
  -36    4    6      1.40      0.00
  -34    4    6      1.93      0.00
  -32    4    6     -1.07      0.00
  -30    4    6      0.11      0.00
  -28    4    6      1.91      0.00
  -26    4    6     -1.10      0.00
  -24    4    6     -7.51      0.00
  -22    4    6     -1.76      0.00
  -20    4    6     -2.44      0.00
  -18    4    6     -3.36      0.00
  -16    4    6    -12.45      0.00
  -14    4    6     -9.57      0.00
  -12    4    6      1.51      0.00
  -10    4    6      4.04      0.00
   -8    4    6     10.87      0.00
   -6    4    6     12.68      0.00
   -4    4    6     -1.45      0.00
   -2    4    6    -12.50      0.00
    0    4    6     -1.59      0.00
    2    4    6      5.69      0.00
    4    4    6     -5.93      0.00
    6    4    6    -11.10      0.00
    8    4    6      0.23      0.00
   10    4    6      4.44      0.00
   12    4    6      0.79      0.00
   14    4    6     -4.60      0.00
   16    4    6     -1.61      0.00
   18    4    6     -0.90      0.00
   20    4    6      0.68      0.00
   22    4    6      1.46      0.00
   24    4    6      1.80      0.00
   26    4    6      1.07      0.00
  -37    5    6     -2.33      0.00
  -35    5    6     -1.26      0.00
  -33    5    6      2.43      0.00
  -31    5    6      4.56      0.00
  -29    5    6     -0.21      0.00
  -27    5    6     -4.32      0.00
  -25    5    6     -2.64      0.00
  -23    5    6     -1.38      0.00
  -21    5    6      0.97      0.00
  -19    5    6      0.78      0.00
  -17    5    6     -3.88      0.00
  -15    5    6     -9.82      0.00
  -13    5    6     -5.81      0.00
  -11    5    6     -5.14      0.00
   -9    5    6     -5.40      0.00
   -7    5    6      8.58      0.00
   -5    5    6     17.39      0.00
   -3    5    6      7.63      0.00
   -1    5    6     -3.94      0.00
    1    5    6     -2.42      0.00
    3    5    6     -1.16      0.00
    5    5    6     -1.70      0.00
    7    5    6     -2.19      0.00
    9    5    6     -4.71      0.00
   11    5    6      0.22      0.00
   13    5    6      1.12      0.00
   15    5    6      0.00      0.00
   17    5    6      2.11      0.00
   19    5    6      3.31      0.00
   21    5    6      2.64      0.00
   23    5    6      5.04      0.00
   25    5    6      2.60      0.00
  -34    6    6     -0.90      0.00
  -32    6    6      0.30      0.00
  -30    6    6      2.03      0.00
  -28    6    6     -2.75      0.00
  -26    6    6     -2.92      0.00
  -24    6    6      4.60      0.00
  -22    6    6      3.72      0.00
  -20    6    6      1.59      0.00
  -18    6    6      0.49      0.00
  -16    6    6      2.34      0.00
  -14    6    6      1.26      0.00
  -12    6    6     -3.68      0.00
  -10    6    6      3.14      0.00
   -8    6    6      4.31      0.00
   -6    6    6      6.95      0.00
   -4    6    6     13.75      0.00
   -2    6    6     11.24      0.00
    0    6    6     -0.11      0.00
    2    6    6     -6.18      0.00
    4    6    6      2.79      0.00
    6    6    6      3.07      0.00
    8    6    6     -3.33      0.00
   10    6    6     -2.19      0.00
   12    6    6     -0.61      0.00
   14    6    6      1.09      0.00
   16    6    6      0.98      0.00
   18    6    6      2.64      0.00
   20    6    6      1.46      0.00
   22    6    6      4.48      0.00
   24    6    6      5.85      0.00
  -33    7    6      1.63      0.00
  -31    7    6      3.60      0.00
  -29    7    6     -1.99      0.00
  -27    7    6     -2.50      0.00
  -25    7    6     -0.31      0.00
  -23    7    6     -0.11      0.00
  -21    7    6     -4.83      0.00
  -19    7    6     -3.07      0.00
  -17    7    6      0.63      0.00
  -15    7    6      2.88      0.00
  -13    7    6      1.84      0.00
  -11    7    6     -0.57      0.00
   -9    7    6      0.72      0.00
   -7    7    6      3.43      0.00
   -5    7    6      5.40      0.00
   -3    7    6      5.57      0.00
   -1    7    6      5.37      0.00
    1    7    6     -0.68      0.00
    3    7    6      0.38      0.00
    5    7    6      1.18      0.00
    7    7    6      0.67      0.00
    9    7    6     -0.32      0.00
   11    7    6     -3.73      0.00
   13    7    6     -1.87      0.00
   15    7    6     -1.29      0.00
   17    7    6      0.87      0.00
   19    7    6      0.19      0.00
   21    7    6      1.00      0.00
  -32    8    6      2.42      0.00
  -30    8    6     -0.39      0.00
  -28    8    6     -0.20      0.00
  -26    8    6     -2.93      0.00
  -24    8    6     -1.49      0.00
  -22    8    6      0.36      0.00
  -20    8    6     -1.50      0.00
  -18    8    6     -4.15      0.00
  -16    8    6     -0.48      0.00
  -14    8    6      2.47      0.00
  -12    8    6      3.89      0.00
  -10    8    6      2.27      0.00
   -8    8    6      1.00      0.00
   -6    8    6      2.32      0.00
   -4    8    6      1.67      0.00
   -2    8    6      0.57      0.00
    0    8    6      0.77      0.00
    2    8    6     -1.44      0.00
    4    8    6     -1.43      0.00
    6    8    6      3.23      0.00
    8    8    6      4.05      0.00
   10    8    6      0.87      0.00
   12    8    6     -0.28      0.00
   14    8    6     -2.30      0.00
   16    8    6     -2.74      0.00
   18    8    6      0.85      0.00
   20    8    6      2.13      0.00
  -29    9    6      2.84      0.00
  -27    9    6     -1.44      0.00
  -25    9    6      0.51      0.00
  -23    9    6      4.74      0.00
  -21    9    6      2.20      0.00
  -19    9    6     -0.73      0.00
  -17    9    6     -0.87      0.00
  -15    9    6      2.36      0.00
  -13    9    6     -0.12      0.00
  -11    9    6      0.77      0.00
   -9    9    6      0.39      0.00
   -7    9    6     -2.71      0.00
   -5    9    6      2.28      0.00
   -3    9    6      3.57      0.00
   -1    9    6      2.52      0.00
    1    9    6      3.65      0.00
    3    9    6     -0.38      0.00
    5    9    6      2.19      0.00
    7    9    6      3.01      0.00
    9    9    6      3.57      0.00
   11    9    6      1.23      0.00
   13    9    6     -1.92      0.00
   15    9    6     -1.08      0.00
   17    9    6     -1.99      0.00
  -28   10    6     -5.01      0.00
  -26   10    6     -0.62      0.00
  -24   10    6      6.45      0.00
  -22   10    6      3.50      0.00
  -20   10    6     -1.19      0.00
  -18   10    6      3.76      0.00
  -16   10    6      3.85      0.00
  -14   10    6      2.09      0.00
  -12   10    6      5.06      0.00
  -10   10    6      3.32      0.00
   -8   10    6      0.60      0.00
   -6   10    6      0.82      0.00
   -4   10    6      0.40      0.00
   -2   10    6      3.04      0.00
    0   10    6      4.02      0.00
    2   10    6      0.69      0.00
    4   10    6      0.07      0.00
    6   10    6      2.72      0.00
    8   10    6      0.72      0.00
   10   10    6      1.17      0.00
   12   10    6      1.92      0.00
   14   10    6     -1.48      0.00
   16   10    6     -1.44      0.00
  -23   11    6     -0.84      0.00
  -21   11    6      0.05      0.00
  -19   11    6      0.24      0.00
  -17   11    6      3.59      0.00
  -15   11    6      1.26      0.00
  -13   11    6      3.29      0.00
  -11   11    6      3.22      0.00
   -9   11    6     -1.42      0.00
   -7   11    6      1.71      0.00
   -5   11    6     -0.12      0.00
   -3   11    6      0.16      0.00
   -1   11    6      1.96      0.00
    1   11    6     -1.73      0.00
    3   11    6      1.55      0.00
    5   11    6      3.57      0.00
    7   11    6      0.51      0.00
    9   11    6     -0.97      0.00
   11   11    6      5.25      0.00
  -20   12    6      1.77      0.00
  -18   12    6      1.21      0.00
  -16   12    6     -0.37      0.00
  -14   12    6     -2.02      0.00
  -12   12    6     -2.65      0.00
  -10   12    6     -0.67      0.00
   -8   12    6      2.83      0.00
   -6   12    6     -2.19      0.00
   -4   12    6     -4.55      0.00
   -2   12    6      1.00      0.00
    0   12    6      1.27      0.00
    2   12    6     -0.25      0.00
    4   12    6      0.55      0.00
    6   12    6     -0.20      0.00
    8   12    6     -0.39      0.00
  -11   13    6     -2.35      0.00
   -9   13    6     -1.70      0.00
   -7   13    6      0.86      0.00
   -5   13    6      0.91      0.00
   -3   13    6      2.26      0.00
   -1   13    6     -0.43      0.00
    1   13    6      1.03      0.00
  -39    1    7      3.72      0.00
  -37    1    7      2.50      0.00
  -35    1    7      2.09      0.00
  -33    1    7      0.21      0.00
  -31    1    7     -2.57      0.00
  -29    1    7     -1.10      0.00
  -27    1    7      0.72      0.00
  -25    1    7      2.91      0.00
  -23    1    7      7.55      0.00
  -21    1    7      2.55      0.00
  -19    1    7     -2.09      0.00
  -17    1    7     -4.22      0.00
  -15    1    7      8.42      0.00
  -13    1    7    -21.61      0.00
  -11    1    7    -65.44      0.00
   -9    1    7    -44.95      0.00
   -7    1    7     32.60      0.00
   -5    1    7     34.05      0.00
   -3    1    7     -7.14      0.00
   -1    1    7      4.76      0.00
    1    1    7     18.64      0.00
    3    1    7     12.53      0.00
    5    1    7     -3.73      0.00
    7    1    7     -4.50      0.00
    9    1    7     -2.88      0.00
   11    1    7     -0.06      0.00
   13    1    7      2.52      0.00
   15    1    7      4.11      0.00
   17    1    7      3.96      0.00
   19    1    7     -0.94      0.00
   21    1    7      0.28      0.00
   23    1    7      4.23      0.00
   25    1    7     -2.57      0.00
  -38    2    7      2.47      0.00
  -36    2    7      2.07      0.00
  -34    2    7      2.21      0.00
  -32    2    7     -0.72      0.00
  -30    2    7     -2.13      0.00
  -28    2    7     -0.76      0.00
  -26    2    7      4.71      0.00
  -24    2    7      8.35      0.00
  -22    2    7      2.70      0.00
  -20    2    7     -2.59      0.00
  -18    2    7     -0.54      0.00
  -16    2    7      3.16      0.00
  -14    2    7     -4.29      0.00
  -12    2    7    -29.76      0.00
  -10    2    7    -47.74      0.00
   -8    2    7    -21.97      0.00
   -6    2    7     10.11      0.00
   -4    2    7      9.28      0.00
   -2    2    7     -0.88      0.00
    0    2    7     -1.45      0.00
    2    2    7      8.95      0.00
    4    2    7      9.06      0.00
    6    2    7     -1.11      0.00
    8    2    7     -5.35      0.00
   10    2    7     -2.49      0.00
   12    2    7      0.62      0.00
   14    2    7      1.75      0.00
   16    2    7      2.33      0.00
   18    2    7      0.29      0.00
   20    2    7      0.13      0.00
   22    2    7      0.05      0.00
   24    2    7     -3.85      0.00
   26    2    7     -1.24      0.00
  -39    3    7      1.80      0.00
  -37    3    7     -0.09      0.00
  -35    3    7     -0.32      0.00
  -33    3    7      1.98      0.00
  -31    3    7      1.31      0.00
  -29    3    7     -0.86      0.00
  -27    3    7      1.65      0.00
  -25    3    7      4.70      0.00
  -23    3    7     -2.82      0.00
  -21    3    7     -0.06      0.00
  -19    3    7      3.05      0.00
  -17    3    7      7.58      0.00
  -15    3    7     -3.30      0.00
  -13    3    7     -8.14      0.00
  -11    3    7     -6.06      0.00
   -9    3    7    -15.95      0.00
   -7    3    7    -28.14      0.00
   -5    3    7    -16.56      0.00
   -3    3    7      0.48      0.00
   -1    3    7     -6.15      0.00
    1    3    7     -9.49      0.00
    3    3    7      2.22      0.00
    5    3    7      7.31      0.00
    7    3    7     -1.52      0.00
    9    3    7     -3.08      0.00
   11    3    7      0.98      0.00
   13    3    7      1.08      0.00
   15    3    7     -1.02      0.00
   17    3    7      0.56      0.00
   19    3    7     -0.26      0.00
   21    3    7     -0.27      0.00
   23    3    7     -1.05      0.00
   25    3    7      0.31      0.00
  -38    4    7      3.32      0.00
  -36    4    7      1.27      0.00
  -34    4    7     -3.91      0.00
  -32    4    7     -2.04      0.00
  -30    4    7      5.16      0.00
  -28    4    7      3.39      0.00
  -26    4    7      0.58      0.00
  -24    4    7     -0.08      0.00
  -22    4    7     -2.24      0.00
  -20    4    7      2.25      0.00
  -18    4    7      5.46      0.00
  -16    4    7      0.88      0.00
  -14    4    7     -2.78      0.00
  -12    4    7      7.78      0.00
  -10    4    7     10.09      0.00
   -8    4    7    -16.68      0.00
   -6    4    7    -34.19      0.00
   -4    4    7    -20.67      0.00
   -2    4    7     -4.01      0.00
    0    4    7     -3.31      0.00
    2    4    7     -6.03      0.00
    4    4    7     -0.80      0.00
    6    4    7      5.44      0.00
    8    4    7      6.91      0.00
   10    4    7      3.28      0.00
   12    4    7      0.00      0.00
   14    4    7     -1.76      0.00
   16    4    7     -1.42      0.00
   18    4    7      0.58      0.00
   20    4    7      1.64      0.00
   22    4    7      0.41      0.00
   24    4    7      1.56      0.00
  -37    5    7      2.74      0.00
  -35    5    7      3.47      0.00
  -33    5    7      0.96      0.00
  -31    5    7      1.86      0.00
  -29    5    7      4.23      0.00
  -27    5    7     -1.36      0.00
  -25    5    7     -7.40      0.00
  -23    5    7     -2.12      0.00
  -21    5    7     -1.34      0.00
  -19    5    7      0.81      0.00
  -17    5    7     -4.18      0.00
  -15    5    7     -5.68      0.00
  -13    5    7     -0.09      0.00
  -11    5    7     -1.87      0.00
   -9    5    7      0.52      0.00
   -7    5    7     -7.32      0.00
   -5    5    7    -19.11      0.00
   -3    5    7    -13.55      0.00
   -1    5    7      3.46      0.00
    1    5    7      6.67      0.00
    3    5    7     -4.66      0.00
    5    5    7     -1.65      0.00
    7    5    7      5.59      0.00
    9    5    7      6.06      0.00
   11    5    7      2.48      0.00
   13    5    7     -1.46      0.00
   15    5    7     -0.17      0.00
   17    5    7     -0.91      0.00
   19    5    7      0.38      0.00
   21    5    7     -1.69      0.00
   23    5    7     -1.18      0.00
  -36    6    7      1.40      0.00
  -34    6    7      2.11      0.00
  -32    6    7      1.91      0.00
  -30    6    7     -1.46      0.00
  -28    6    7     -1.81      0.00
  -26    6    7     -2.03      0.00
  -24    6    7     -2.88      0.00
  -22    6    7      1.88      0.00
  -20    6    7      1.47      0.00
  -18    6    7      0.09      0.00
  -16    6    7     -4.34      0.00
  -14    6    7     -2.64      0.00
  -12    6    7      1.77      0.00
  -10    6    7      2.25      0.00
   -8    6    7      2.86      0.00
   -6    6    7     -0.12      0.00
   -4    6    7     -3.24      0.00
   -2    6    7     -3.22      0.00
    0    6    7      0.91      0.00
    2    6    7     -0.75      0.00
    4    6    7     -0.41      0.00
    6    6    7     -2.19      0.00
    8    6    7     -2.35      0.00
   10    6    7      3.12      0.00
   12    6    7      1.00      0.00
   14    6    7     -1.48      0.00
   16    6    7     -0.70      0.00
   18    6    7      0.75      0.00
   20    6    7     -0.29      0.00
   22    6    7      0.98      0.00
  -35    7    7     -1.56      0.00
  -33    7    7      0.12      0.00
  -31    7    7      1.98      0.00
  -29    7    7     -1.57      0.00
  -27    7    7      0.47      0.00
  -25    7    7      2.71      0.00
  -23    7    7      0.70      0.00
  -21    7    7     -1.12      0.00
  -19    7    7      0.63      0.00
  -17    7    7      0.49      0.00
  -15    7    7     -2.63      0.00
  -13    7    7     -5.68      0.00
  -11    7    7      0.25      0.00
   -9    7    7      2.20      0.00
   -7    7    7      2.69      0.00
   -5    7    7      5.37      0.00
   -3    7    7      2.88      0.00
   -1    7    7     -1.12      0.00
    1    7    7     -0.83      0.00
    3    7    7      0.56      0.00
    5    7    7     -4.87      0.00
    7    7    7     -6.53      0.00
    9    7    7     -2.60      0.00
   11    7    7     -0.69      0.00
   13    7    7      0.24      0.00
   15    7    7      0.02      0.00
   17    7    7     -1.60      0.00
   19    7    7     -3.16      0.00
   21    7    7      0.48      0.00
  -32    8    7      2.63      0.00
  -30    8    7     -1.17      0.00
  -28    8    7      0.66      0.00
  -26    8    7      0.93      0.00
  -24    8    7      0.23      0.00
  -22    8    7     -4.31      0.00
  -20    8    7     -3.15      0.00
  -18    8    7      0.09      0.00
  -16    8    7     -0.71      0.00
  -14    8    7     -0.56      0.00
  -12    8    7     -1.32      0.00
  -10    8    7      2.01      0.00
   -8    8    7      3.74      0.00
   -6    8    7     -0.01      0.00
   -4    8    7     -0.47      0.00
   -2    8    7      0.37      0.00
    0    8    7     -2.77      0.00
    2    8    7     -2.08      0.00
    4    8    7     -3.09      0.00
    6    8    7     -2.18      0.00
    8    8    7     -3.72      0.00
   10    8    7     -2.73      0.00
   12    8    7      0.19      0.00
   14    8    7      0.04      0.00
   16    8    7      1.00      0.00
   18    8    7     -1.98      0.00
  -31    9    7      1.12      0.00
  -29    9    7      2.90      0.00
  -27    9    7     -1.82      0.00
  -25    9    7      0.15      0.00
  -23    9    7      0.57      0.00
  -21    9    7     -3.62      0.00
  -19    9    7     -7.64      0.00
  -17    9    7     -1.62      0.00
  -15    9    7      1.20      0.00
  -13    9    7     -1.58      0.00
  -11    9    7     -0.60      0.00
   -9    9    7      2.32      0.00
   -7    9    7      4.43      0.00
   -5    9    7      2.62      0.00
   -3    9    7     -0.35      0.00
   -1    9    7     -0.20      0.00
    1    9    7     -0.45      0.00
    3    9    7     -1.03      0.00
    5    9    7      0.20      0.00
    7    9    7      2.32      0.00
    9    9    7     -0.32      0.00
   11    9    7     -1.22      0.00
   13    9    7      0.71      0.00
   15    9    7      0.80      0.00
   17    9    7      0.90      0.00
  -28   10    7     -0.05      0.00
  -26   10    7      3.68      0.00
  -24   10    7      3.56      0.00
  -22   10    7     -3.42      0.00
  -20   10    7     -4.67      0.00
  -18   10    7     -3.61      0.00
  -16   10    7      0.22      0.00
  -14   10    7     -2.42      0.00
  -12   10    7      1.49      0.00
  -10   10    7      3.06      0.00
   -8   10    7     -0.18      0.00
   -6   10    7      4.67      0.00
   -4   10    7      3.66      0.00
   -2   10    7      3.20      0.00
    0   10    7      3.53      0.00
    2   10    7     -2.28      0.00
    4   10    7     -1.59      0.00
    6   10    7      0.49      0.00
    8   10    7     -0.86      0.00
   10   10    7     -6.29      0.00
   12   10    7     -4.14      0.00
   14   10    7     -1.02      0.00
  -25   11    7      5.18      0.00
  -23   11    7     -0.28      0.00
  -21   11    7     -5.30      0.00
  -19   11    7     -0.24      0.00
  -17   11    7      1.79      0.00
  -15   11    7      1.39      0.00
  -13   11    7      3.43      0.00
  -11   11    7      0.89      0.00
   -9   11    7     -0.40      0.00
   -7   11    7      5.67      0.00
   -5   11    7      4.35      0.00
   -3   11    7      1.57      0.00
   -1   11    7      3.52      0.00
    1   11    7      0.06      0.00
    3   11    7     -2.43      0.00
    5   11    7     -0.08      0.00
    7   11    7     -3.10      0.00
    9   11    7     -4.69      0.00
   11   11    7     -3.51      0.00
  -20   12    7     -1.50      0.00
  -18   12    7      5.66      0.00
  -16   12    7      1.29      0.00
  -14   12    7      1.52      0.00
  -12   12    7      4.05      0.00
  -10   12    7      0.39      0.00
   -8   12    7      2.38      0.00
   -6   12    7      1.23      0.00
   -4   12    7      0.58      0.00
   -2   12    7      2.54      0.00
    0   12    7     -0.55      0.00
    2   12    7     -0.65      0.00
    4   12    7      1.36      0.00
    6   12    7     -1.41      0.00
  -11   13    7     -0.92      0.00
   -9   13    7      2.48      0.00
   -7   13    7     -0.58      0.00
   -5   13    7     -0.67      0.00
   -3   13    7      4.58      0.00
  -40    0    8     -4.35      0.00
  -38    0    8     -0.12      0.00
  -36    0    8     -0.07      0.00
  -34    0    8      1.89      0.00
  -32    0    8      3.09      0.00
  -30    0    8     -0.16      0.00
  -28    0    8     -2.23      0.00
  -26    0    8     -4.93      0.00
  -24    0    8     -6.53      0.00
  -22    0    8     -0.64      0.00
  -20    0    8      3.09      0.00
  -18    0    8     -0.44      0.00
  -16    0    8     -8.49      0.00
  -14    0    8     40.66      0.00
  -12    0    8     87.09      0.00
  -10    0    8     48.77      0.00
   -8    0    8    -20.76      0.00
   -6    0    8    -11.14      0.00
   -4    0    8     15.50      0.00
   -2    0    8     -6.82      0.00
    0    0    8    -20.28      0.00
    2    0    8     -8.58      0.00
    4    0    8      6.91      0.00
    6    0    8      6.75      0.00
    8    0    8      3.29      0.00
   10    0    8     -1.10      0.00
   12    0    8     -6.32      0.00
   14    0    8     -7.89      0.00
   16    0    8     -5.57      0.00
   18    0    8     -0.40      0.00
   20    0    8     -3.20      0.00
   22    0    8     -1.35      0.00
   24    0    8      8.48      0.00
  -39    1    8     -0.72      0.00
  -37    1    8      0.93      0.00
  -35    1    8      2.96      0.00
  -33    1    8      3.26      0.00
  -31    1    8      0.54      0.00
  -29    1    8     -1.29      0.00
  -27    1    8     -4.03      0.00
  -25    1    8     -3.86      0.00
  -23    1    8      0.76      0.00
  -21    1    8      1.62      0.00
  -19    1    8     -2.08      0.00
  -17    1    8     -5.50      0.00
  -15    1    8      4.01      0.00
  -13    1    8     32.10      0.00
  -11    1    8     44.37      0.00
   -9    1    8     20.05      0.00
   -7    1    8      1.56      0.00
   -5    1    8      2.43      0.00
   -3    1    8      1.09      0.00
   -1    1    8     -3.25      0.00
    1    1    8     -7.00      0.00
    3    1    8     -3.66      0.00
    5    1    8      2.96      0.00
    7    1    8      4.16      0.00
    9    1    8      1.24      0.00
   11    1    8     -0.75      0.00
   13    1    8     -2.18      0.00
   15    1    8     -3.50      0.00
   17    1    8     -2.10      0.00
   19    1    8     -2.50      0.00
   21    1    8      0.68      0.00
   23    1    8      6.12      0.00
   25    1    8      2.12      0.00
  -40    2    8      1.70      0.00
  -38    2    8      2.70      0.00
  -36    2    8      3.40      0.00
  -34    2    8      1.37      0.00
  -32    2    8      0.05      0.00
  -30    2    8      0.71      0.00
  -28    2    8     -0.42      0.00
  -26    2    8      1.60      0.00
  -24    2    8      6.92      0.00
  -22    2    8      0.96      0.00
  -20    2    8     -2.82      0.00
  -18    2    8     -4.95      0.00
  -16    2    8      2.42      0.00
  -14    2    8     -8.24      0.00
  -12    2    8    -15.10      0.00
  -10    2    8      5.68      0.00
   -8    2    8     29.70      0.00
   -6    2    8     16.54      0.00
   -4    2    8     -4.77      0.00
   -2    2    8      2.99      0.00
    0    2    8      9.15      0.00
    2    2    8      1.00      0.00
    4    2    8     -4.51      0.00
    6    2    8      0.35      0.00
    8    2    8      1.31      0.00
   10    2    8      0.23      0.00
   12    2    8      2.91      0.00
   14    2    8      2.23      0.00
   16    2    8      0.58      0.00
   18    2    8     -0.49      0.00
   20    2    8      0.18      0.00
   22    2    8      2.54      0.00
   24    2    8     -0.27      0.00
  -39    3    8      1.16      0.00
  -37    3    8      3.75      0.00
  -35    3    8      5.76      0.00
  -33    3    8      1.66      0.00
  -31    3    8     -2.63      0.00
  -29    3    8     -0.07      0.00
  -27    3    8      3.40      0.00
  -25    3    8      5.70      0.00
  -23    3    8      2.99      0.00
  -21    3    8     -2.03      0.00
  -19    3    8      1.12      0.00
  -17    3    8      4.06      0.00
  -15    3    8     -4.19      0.00
  -13    3    8    -22.75      0.00
  -11    3    8    -22.74      0.00
   -9    3    8      7.55      0.00
   -7    3    8     22.83      0.00
   -5    3    8     11.51      0.00
   -3    3    8      0.72      0.00
   -1    3    8      3.47      0.00
    1    3    8     10.20      0.00
    3    3    8      4.73      0.00
    5    3    8     -3.42      0.00
    7    3    8     -4.10      0.00
    9    3    8     -0.47      0.00
   11    3    8      2.84      0.00
   13    3    8      2.82      0.00
   15    3    8      1.73      0.00
   17    3    8     -0.69      0.00
   19    3    8     -2.22      0.00
   21    3    8     -2.42      0.00
   23    3    8     -2.33      0.00
  -38    4    8     -1.65      0.00
  -36    4    8     -1.23      0.00
  -34    4    8      1.34      0.00
  -32    4    8     -0.98      0.00
  -30    4    8     -1.92      0.00
  -28    4    8      4.03      0.00
  -26    4    8      6.45      0.00
  -24    4    8      0.53      0.00
  -22    4    8      3.58      0.00
  -20    4    8      4.93      0.00
  -18    4    8     10.42      0.00
  -16    4    8      5.39      0.00
  -14    4    8     -1.26      0.00
  -12    4    8     -1.56      0.00
  -10    4    8    -10.35      0.00
   -8    4    8     -6.86      0.00
   -6    4    8      8.26      0.00
   -4    4    8      8.98      0.00
   -2    4    8     -3.81      0.00
    0    4    8     -0.36      0.00
    2    4    8     10.64      0.00
    4    4    8      4.12      0.00
    6    4    8     -3.69      0.00
    8    4    8     -4.27      0.00
   10    4    8      0.79      0.00
   12    4    8      1.66      0.00
   14    4    8     -0.37      0.00
   16    4    8      0.49      0.00
   18    4    8     -1.68      0.00
   20    4    8     -1.80      0.00
   22    4    8     -1.96      0.00
  -37    5    8     -2.90      0.00
  -35    5    8     -6.48      0.00
  -33    5    8     -1.49      0.00
  -31    5    8      7.41      0.00
  -29    5    8      3.00      0.00
  -27    5    8      2.28      0.00
  -25    5    8      2.90      0.00
  -23    5    8     -1.68      0.00
  -21    5    8      1.65      0.00
  -19    5    8      4.16      0.00
  -17    5    8      6.26      0.00
  -15    5    8      3.28      0.00
  -13    5    8      3.54      0.00
  -11    5    8      0.27      0.00
   -9    5    8    -13.41      0.00
   -7    5    8    -13.36      0.00
   -5    5    8     -1.75      0.00
   -3    5    8      3.90      0.00
   -1    5    8      1.77      0.00
    1    5    8      1.99      0.00
    3    5    8      1.69      0.00
    5    5    8      4.21      0.00
    7    5    8      2.56      0.00
    9    5    8     -2.60      0.00
   11    5    8     -0.97      0.00
   13    5    8     -0.22      0.00
   15    5    8     -2.64      0.00
   17    5    8     -2.35      0.00
   19    5    8     -1.67      0.00
   21    5    8     -3.65      0.00
  -36    6    8      0.46      0.00
  -34    6    8     -2.09      0.00
  -32    6    8      0.81      0.00
  -30    6    8      5.66      0.00
  -28    6    8     -0.53      0.00
  -26    6    8     -5.42      0.00
  -24    6    8     -0.74      0.00
  -22    6    8      0.82      0.00
  -20    6    8     -0.59      0.00
  -18    6    8     -1.13      0.00
  -16    6    8      1.95      0.00
  -14    6    8      4.99      0.00
  -12    6    8     -1.75      0.00
  -10    6    8     -3.62      0.00
   -8    6    8     -9.46      0.00
   -6    6    8    -13.63      0.00
   -4    6    8     -5.21      0.00
   -2    6    8      4.10      0.00
    0    6    8      1.94      0.00
    2    6    8     -4.23      0.00
    4    6    8      1.03      0.00
    6    6    8      3.56      0.00
    8    6    8      1.67      0.00
   10    6    8     -0.10      0.00
   12    6    8     -0.44      0.00
   14    6    8     -1.35      0.00
   16    6    8     -1.99      0.00
   18    6    8     -0.98      0.00
   20    6    8     -5.55      0.00
  -35    7    8     -3.27      0.00
  -33    7    8     -3.43      0.00
  -31    7    8     -1.13      0.00
  -29    7    8      2.45      0.00
  -27    7    8     -1.24      0.00
  -25    7    8     -2.34      0.00
  -23    7    8      6.04      0.00
  -21    7    8      1.86      0.00
  -19    7    8     -1.76      0.00
  -17    7    8     -0.81      0.00
  -15    7    8      1.45      0.00
  -13    7    8      2.01      0.00
  -11    7    8     -2.31      0.00
   -9    7    8     -3.16      0.00
   -7    7    8     -2.73      0.00
   -5    7    8     -4.25      0.00
   -3    7    8     -3.95      0.00
   -1    7    8      1.00      0.00
    1    7    8     -0.04      0.00
    3    7    8     -0.70      0.00
    5    7    8     -1.54      0.00
    7    7    8      2.06      0.00
    9    7    8      4.00      0.00
   11    7    8      2.31      0.00
   13    7    8      1.02      0.00
   15    7    8     -1.06      0.00
   17    7    8      0.61      0.00
   19    7    8     -1.09      0.00
  -34    8    8     -1.14      0.00
  -32    8    8     -1.43      0.00
  -30    8    8      0.48      0.00
  -28    8    8      3.14      0.00
  -26    8    8     -1.08      0.00
  -24    8    8      1.98      0.00
  -22    8    8      4.53      0.00
  -20    8    8      4.20      0.00
  -18    8    8     -0.87      0.00
  -16    8    8     -2.07      0.00
  -14    8    8     -1.57      0.00
  -12    8    8     -0.67      0.00
  -10    8    8     -1.86      0.00
   -8    8    8     -1.90      0.00
   -6    8    8      0.11      0.00
   -4    8    8     -1.41      0.00
   -2    8    8     -0.68      0.00
    0    8    8      2.17      0.00
    2    8    8      0.44      0.00
    4    8    8     -3.59      0.00
    6    8    8     -2.70      0.00
    8    8    8      1.57      0.00
   10    8    8      2.95      0.00
   12    8    8      2.79      0.00
   14    8    8      1.12      0.00
   16    8    8     -1.65      0.00
   18    8    8     -1.46      0.00
  -31    9    8     -1.47      0.00
  -29    9    8      2.02      0.00
  -27    9    8     -3.88      0.00
  -25    9    8     -1.52      0.00
  -23    9    8      2.58      0.00
  -21    9    8      1.87      0.00
  -19    9    8      0.37      0.00
  -17    9    8     -1.33      0.00
  -15    9    8      0.16      0.00
  -13    9    8     -3.76      0.00
  -11    9    8     -0.89      0.00
   -9    9    8      0.55      0.00
   -7    9    8     -4.73      0.00
   -5    9    8     -4.48      0.00
   -3    9    8     -3.74      0.00
   -1    9    8     -2.25      0.00
    1    9    8      0.52      0.00
    3    9    8     -1.61      0.00
    5    9    8     -1.31      0.00
    7    9    8     -1.67      0.00
    9    9    8      1.17      0.00
   11    9    8      2.64      0.00
   13    9    8      2.07      0.00
   15    9    8      0.83      0.00
  -28   10    8     -4.72      0.00
  -26   10    8     -4.77      0.00
  -24   10    8     -0.39      0.00
  -22   10    8      0.57      0.00
  -20   10    8     -4.79      0.00
  -18   10    8     -1.67      0.00
  -16   10    8     -0.70      0.00
  -14   10    8     -5.41      0.00
  -12   10    8     -2.91      0.00
  -10   10    8      0.23      0.00
   -8   10    8     -1.72      0.00
   -6   10    8     -2.83      0.00
   -4   10    8     -4.15      0.00
   -2   10    8     -3.03      0.00
    0   10    8      0.28      0.00
    2   10    8     -1.92      0.00
    4   10    8     -3.02      0.00
    6   10    8      1.29      0.00
    8   10    8     -1.17      0.00
   10   10    8     -1.20      0.00
   12   10    8      2.24      0.00
  -25   11    8     -0.43      0.00
  -23   11    8     -0.03      0.00
  -21   11    8     -1.53      0.00
  -19   11    8     -4.87      0.00
  -17   11    8     -0.40      0.00
  -15   11    8     -3.31      0.00
  -13   11    8     -0.39      0.00
  -11   11    8      0.63      0.00
   -9   11    8     -2.56      0.00
   -7   11    8      1.39      0.00
   -5   11    8     -0.02      0.00
   -3   11    8      0.03      0.00
   -1   11    8      2.25      0.00
    1   11    8     -2.13      0.00
    3   11    8     -3.64      0.00
    5   11    8      0.02      0.00
    7   11    8     -1.72      0.00
    9   11    8     -6.29      0.00
  -20   12    8      1.44      0.00
  -18   12    8      1.78      0.00
  -16   12    8      0.67      0.00
  -14   12    8      0.87      0.00
  -12   12    8     -0.74      0.00
  -10   12    8     -1.37      0.00
   -8   12    8      4.97      0.00
   -6   12    8      1.06      0.00
   -4   12    8     -2.55      0.00
   -2   12    8      2.23      0.00
    0   12    8      0.61      0.00
    2   12    8     -1.29      0.00
    4   12    8      0.90      0.00
  -11   13    8      0.68      0.00
   -9   13    8      0.15      0.00
   -7   13    8     -1.41      0.00
   -5   13    8     -2.29      0.00
  -41    1    9     -2.63      0.00
  -39    1    9      0.19      0.00
  -37    1    9     -1.13      0.00
  -35    1    9      1.41      0.00
  -33    1    9      2.28      0.00
  -31    1    9      0.42      0.00
  -29    1    9     -1.36      0.00
  -27    1    9     -4.94      0.00
  -25    1    9     -5.75      0.00
  -23    1    9      1.38      0.00
  -21    1    9      4.55      0.00
  -19    1    9      1.92      0.00
  -17    1    9     -0.18      0.00
  -15    1    9     32.09      0.00
  -13    1    9     45.31      0.00
  -11    1    9      8.17      0.00
   -9    1    9    -24.09      0.00
   -7    1    9     -8.21      0.00
   -5    1    9      7.81      0.00
   -3    1    9     -8.14      0.00
   -1    1    9    -14.56      0.00
    1    1    9     -3.46      0.00
    3    1    9      5.09      0.00
    5    1    9      2.45      0.00
    7    1    9     -0.35      0.00
    9    1    9     -1.83      0.00
   11    1    9     -6.01      0.00
   13    1    9     -3.76      0.00
   15    1    9     -1.22      0.00
   17    1    9      0.64      0.00
   19    1    9     -1.88      0.00
   21    1    9      0.06      0.00
   23    1    9      5.28      0.00
  -40    2    9     -1.81      0.00
  -38    2    9     -1.08      0.00
  -36    2    9      0.64      0.00
  -34    2    9      1.56      0.00
  -32    2    9      1.07      0.00
  -30    2    9     -0.98      0.00
  -28    2    9     -4.96      0.00
  -26    2    9     -4.90      0.00
  -24    2    9      1.23      0.00
  -22    2    9      2.04      0.00
  -20    2    9     -2.30      0.00
  -18    2    9      0.02      0.00
  -16    2    9     15.17      0.00
  -14    2    9     37.31      0.00
  -12    2    9     31.99      0.00
  -10    2    9      1.24      0.00
   -8    2    9     -8.17      0.00
   -6    2    9     -1.41      0.00
   -4    2    9      0.95      0.00
   -2    2    9     -3.40      0.00
    0    2    9     -8.80      0.00
    2    2    9     -3.08      0.00
    4    2    9      4.15      0.00
    6    2    9      2.66      0.00
    8    2    9     -1.34      0.00
   10    2    9     -1.99      0.00
   12    2    9     -1.39      0.00
   14    2    9     -2.04      0.00
   16    2    9     -0.14      0.00
   18    2    9      0.31      0.00
   20    2    9      3.09      0.00
   22    2    9      4.60      0.00
  -39    3    9      1.16      0.00
  -37    3    9      0.31      0.00
  -35    3    9     -1.40      0.00
  -33    3    9      1.36      0.00
  -31    3    9      1.43      0.00
  -29    3    9     -2.92      0.00
  -27    3    9     -1.92      0.00
  -25    3    9      2.61      0.00
  -23    3    9     -3.50      0.00
  -21    3    9     -5.63      0.00
  -19    3    9     -5.00      0.00
  -17    3    9      4.21      0.00
  -15    3    9      3.33      0.00
  -13    3    9      4.17      0.00
  -11    3    9     21.52      0.00
   -9    3    9     24.69      0.00
   -7    3    9      7.39      0.00
   -5    3    9      0.32      0.00
   -3    3    9     10.05      0.00
   -1    3    9      4.05      0.00
    1    3    9     -6.68      0.00
    3    3    9     -2.85      0.00
    5    3    9      1.65      0.00
    7    3    9      0.42      0.00
    9    3    9     -2.37      0.00
   11    3    9      1.36      0.00
   13    3    9      0.34      0.00
   15    3    9     -0.71      0.00
   17    3    9      0.94      0.00
   19    3    9      0.92      0.00
   21    3    9      0.86      0.00
   23    3    9     -0.80      0.00
  -40    4    9     -0.48      0.00
  -38    4    9      4.31      0.00
  -36    4    9      5.32      0.00
  -34    4    9     -1.28      0.00
  -32    4    9     -5.86      0.00
  -30    4    9      0.37      0.00
  -28    4    9     -0.23      0.00
  -26    4    9      0.79      0.00
  -24    4    9      0.90      0.00
  -22    4    9     -5.17      0.00
  -20    4    9     -2.63      0.00
  -18    4    9      0.23      0.00
  -16    4    9     -1.76      0.00
  -14    4    9     -9.70      0.00
  -12    4    9      0.74      0.00
  -10    4    9     26.68      0.00
   -8    4    9     26.30      0.00
   -6    4    9      8.64      0.00
   -4    4    9      1.21      0.00
   -2    4    9      3.37      0.00
    0    4    9      1.69      0.00
    2    4    9     -3.25      0.00
    4    4    9     -7.14      0.00
    6    4    9     -5.34      0.00
    8    4    9     -1.37      0.00
   10    4    9      0.11      0.00
   12    4    9      0.21      0.00
   14    4    9      0.82      0.00
   16    4    9     -1.62      0.00
   18    4    9     -2.42      0.00
   20    4    9     -0.72      0.00
   22    4    9     -0.32      0.00
  -39    5    9     -1.25      0.00
  -37    5    9     -2.87      0.00
  -35    5    9     -0.72      0.00
  -33    5    9     -3.15      0.00
  -31    5    9     -2.33      0.00
  -29    5    9      5.08      0.00
  -27    5    9      6.43      0.00
  -25    5    9      0.90      0.00
  -23    5    9      0.96      0.00
  -21    5    9     -0.11      0.00
  -19    5    9      2.21      0.00
  -17    5    9      0.73      0.00
  -15    5    9     -3.59      0.00
  -13    5    9     -0.45      0.00
  -11    5    9      0.41      0.00
   -9    5    9     10.70      0.00
   -7    5    9     14.83      0.00
   -5    5    9      1.98      0.00
   -3    5    9     -7.76      0.00
   -1    5    9     -0.63      0.00
    1    5    9      4.06      0.00
    3    5    9     -3.52      0.00
    5    5    9     -6.24      0.00
    7    5    9     -5.73      0.00
    9    5    9     -0.80      0.00
   11    5    9      0.10      0.00
   13    5    9      0.40      0.00
   15    5    9      0.70      0.00
   17    5    9     -0.73      0.00
   19    5    9      1.50      0.00
   21    5    9     -0.17      0.00
  -36    6    9     -3.56      0.00
  -34    6    9      2.55      0.00
  -32    6    9      6.95      0.00
  -30    6    9     -0.20      0.00
  -28    6    9      4.49      0.00
  -26    6    9      4.33      0.00
  -24    6    9     -3.10      0.00
  -22    6    9      1.80      0.00
  -20    6    9      1.54      0.00
  -18    6    9      1.59      0.00
  -16    6    9     -1.35      0.00
  -14    6    9     -2.46      0.00
  -12    6    9     -0.39      0.00
  -10    6    9     -2.60      0.00
   -8    6    9     -1.40      0.00
   -6    6    9      1.49      0.00
   -4    6    9      1.16      0.00
   -2    6    9     -1.17      0.00
    0    6    9      1.13      0.00
    2    6    9      2.01      0.00
    4    6    9      4.33      0.00
    6    6    9     -0.32      0.00
    8    6    9     -3.00      0.00
   10    6    9      0.46      0.00
   12    6    9      1.28      0.00
   14    6    9      0.08      0.00
   16    6    9     -0.26      0.00
   18    6    9      1.01      0.00
   20    6    9      0.45      0.00
  -35    7    9     -1.76      0.00
  -33    7    9      2.45      0.00
  -31    7    9      2.81      0.00
  -29    7    9     -1.99      0.00
  -27    7    9     -1.97      0.00
  -25    7    9     -0.25      0.00
  -23    7    9      2.04      0.00
  -21    7    9     -0.14      0.00
  -19    7    9      1.52      0.00
  -17    7    9      4.09      0.00
  -15    7    9      4.58      0.00
  -13    7    9     -0.84      0.00
  -11    7    9     -1.75      0.00
   -9    7    9     -4.66      0.00
   -7    7    9     -6.04      0.00
   -5    7    9     -0.82      0.00
   -3    7    9      0.85      0.00
   -1    7    9     -0.34      0.00
    1    7    9      1.68      0.00
    3    7    9      6.68      0.00
    5    7    9      5.25      0.00
    7    7    9      1.35      0.00
    9    7    9      0.50      0.00
   11    7    9      1.11      0.00
   13    7    9      1.02      0.00
   15    7    9      2.88      0.00
   17    7    9      2.70      0.00
  -34    8    9     -0.93      0.00
  -32    8    9     -0.26      0.00
  -30    8    9      0.20      0.00
  -28    8    9     -2.07      0.00
  -26    8    9     -3.68      0.00
  -24    8    9      3.80      0.00
  -22    8    9      2.26      0.00
  -20    8    9      0.08      0.00
  -18    8    9      1.44      0.00
  -16    8    9      2.21      0.00
  -14    8    9      2.52      0.00
  -12    8    9     -2.66      0.00
  -10    8    9     -1.46      0.00
   -8    8    9      1.22      0.00
   -6    8    9     -0.79      0.00
   -4    8    9     -0.84      0.00
   -2    8    9      1.75      0.00
    0    8    9      1.41      0.00
    2    8    9      1.90      0.00
    4    8    9      1.64      0.00
    6    8    9      4.90      0.00
    8    8    9      3.14      0.00
   10    8    9      1.03      0.00
   12    8    9      0.49      0.00
   14    8    9      0.36      0.00
   16    8    9      2.97      0.00
  -31    9    9      1.21      0.00
  -29    9    9      2.14      0.00
  -27    9    9     -2.55      0.00
  -25    9    9      2.47      0.00
  -23    9    9      5.68      0.00
  -21    9    9      6.03      0.00
  -19    9    9     -0.77      0.00
  -17    9    9     -0.02      0.00
  -15    9    9      4.12      0.00
  -13    9    9      0.53      0.00
  -11    9    9     -5.00      0.00
   -9    9    9     -3.71      0.00
   -7    9    9      0.21      0.00
   -5    9    9     -0.37      0.00
   -3    9    9     -1.45      0.00
   -1    9    9     -0.21      0.00
    1    9    9      1.00      0.00
    3    9    9     -1.55      0.00
    5    9    9     -1.70      0.00
    7    9    9      3.72      0.00
    9    9    9      2.07      0.00
   11    9    9     -1.22      0.00
   13    9    9     -0.57      0.00
  -28   10    9     -4.77      0.00
  -26   10    9      0.63      0.00
  -24   10    9      4.90      0.00
  -22   10    9      3.65      0.00
  -20   10    9      2.13      0.00
  -18   10    9     -0.61      0.00
  -16   10    9      0.60      0.00
  -14   10    9     -4.60      0.00
  -12   10    9     -1.47      0.00
  -10   10    9     -1.74      0.00
   -8   10    9     -6.24      0.00
   -6   10    9     -3.97      0.00
   -4   10    9     -4.96      0.00
   -2   10    9     -3.58      0.00
    0   10    9      1.48      0.00
    2   10    9      0.53      0.00
    4   10    9     -0.42      0.00
    6   10    9      2.96      0.00
    8   10    9      6.32      0.00
   10   10    9      2.94      0.00
  -25   11    9      2.92      0.00
  -23   11    9      3.30      0.00
  -21   11    9     -1.69      0.00
  -19   11    9      0.26      0.00
  -17   11    9      1.06      0.00
  -15   11    9     -2.37      0.00
  -13   11    9     -0.23      0.00
  -11   11    9     -1.57      0.00
   -9   11    9     -7.12      0.00
   -7   11    9     -2.32      0.00
   -5   11    9     -2.40      0.00
   -3   11    9     -4.74      0.00
   -1   11    9      0.49      0.00
    1   11    9     -0.38      0.00
    3   11    9     -1.57      0.00
    5   11    9      4.07      0.00
    7   11    9      4.05      0.00
  -20   12    9     -5.84      0.00
  -18   12    9      1.21      0.00
  -16   12    9     -2.61      0.00
  -14   12    9     -2.19      0.00
  -12   12    9     -1.13      0.00
  -10   12    9     -2.37      0.00
   -8   12    9      0.71      0.00
   -6   12    9     -0.68      0.00
   -4   12    9     -2.33      0.00
   -2   12    9      1.14      0.00
    0   12    9      0.06      0.00
    2   12    9     -1.87      0.00
  -42    0   10      0.61      0.00
  -40    0   10     -3.31      0.00
  -38    0   10     -0.74      0.00
  -36    0   10     -3.12      0.00
  -34    0   10     -0.99      0.00
  -32    0   10      2.43      0.00
  -30    0   10      5.23      0.00
  -28    0   10      6.96      0.00
  -26    0   10      4.55      0.00
  -24    0   10     -3.09      0.00
  -22    0   10     -4.46      0.00
  -20    0   10      1.89      0.00
  -18    0   10     -5.21      0.00
  -16    0   10    -48.00      0.00
  -14    0   10    -54.82      0.00
  -12    0   10    -12.05      0.00
  -10    0   10     10.92      0.00
   -8    0   10     -5.34      0.00
   -6    0   10    -10.06      0.00
   -4    0   10     10.98      0.00
   -2    0   10     13.60      0.00
    0    0   10      0.33      0.00
    2    0   10     -7.56      0.00
    4    0   10     -3.61      0.00
    6    0   10      0.56      0.00
    8    0   10      3.39      0.00
   10    0   10      8.93      0.00
   12    0   10      4.51      0.00
   14    0   10      1.88      0.00
   16    0   10      1.84      0.00
   18    0   10      2.70      0.00
   20    0   10     -4.88      0.00
   22    0   10     -8.10      0.00
  -41    1   10     -1.28      0.00
  -39    1   10     -3.56      0.00
  -37    1   10     -4.22      0.00
  -35    1   10     -0.71      0.00
  -33    1   10      2.20      0.00
  -31    1   10      3.07      0.00
  -29    1   10      4.19      0.00
  -27    1   10      2.04      0.00
  -25    1   10     -1.23      0.00
  -23    1   10      0.31      0.00
  -21    1   10      2.62      0.00
  -19    1   10     -0.57      0.00
  -17    1   10    -15.71      0.00
  -15    1   10    -32.94      0.00
  -13    1   10    -24.20      0.00
  -11    1   10     -4.58      0.00
   -9    1   10     -2.59      0.00
   -7    1   10     -3.31      0.00
   -5    1   10      0.75      0.00
   -3    1   10      4.10      0.00
   -1    1   10      4.45      0.00
    1    1   10     -1.19      0.00
    3    1   10     -4.67      0.00
    5    1   10     -1.59      0.00
    7    1   10      1.20      0.00
    9    1   10      1.54      0.00
   11    1   10      2.77      0.00
   13    1   10      3.65      0.00
   15    1   10      2.57      0.00
   17    1   10      2.09      0.00
   19    1   10     -3.55      0.00
   21    1   10     -5.02      0.00
  -40    2   10     -2.33      0.00
  -38    2   10     -2.76      0.00
  -36    2   10     -0.21      0.00
  -34    2   10     -0.61      0.00
  -32    2   10      0.77      0.00
  -30    2   10      1.12      0.00
  -28    2   10     -2.76      0.00
  -26    2   10     -4.02      0.00
  -24    2   10      3.38      0.00
  -22    2   10      4.66      0.00
  -20    2   10      1.51      0.00
  -18    2   10     -1.21      0.00
  -16    2   10     11.45      0.00
  -14    2   10      7.82      0.00
  -12    2   10    -17.37      0.00
  -10    2   10    -23.83      0.00
   -8    2   10     -5.98      0.00
   -6    2   10      1.89      0.00
   -4    2   10     -9.38      0.00
   -2    2   10     -6.09      0.00
    0    2   10      2.09      0.00
    2    2   10      1.92      0.00
    4    2   10     -0.84      0.00
    6    2   10     -0.65      0.00
    8    2   10     -0.40      0.00
   10    2   10     -3.90      0.00
   12    2   10      0.78      0.00
   14    2   10      1.18      0.00
   16    2   10      0.84      0.00
   18    2   10     -0.23      0.00
   20    2   10     -0.27      0.00
   22    2   10      1.63      0.00
  -41    3   10     -3.06      0.00
  -39    3   10     -4.91      0.00
  -37    3   10     -3.58      0.00
  -35    3   10     -0.57      0.00
  -33    3   10      1.34      0.00
  -31    3   10     -1.27      0.00
  -29    3   10     -2.57      0.00
  -27    3   10     -3.66      0.00
  -25    3   10      0.53      0.00
  -23    3   10      1.56      0.00
  -21    3   10     -3.77      0.00
  -19    3   10     -0.95      0.00
  -17    3   10     10.34      0.00
  -15    3   10     20.98      0.00
  -13    3   10      4.68      0.00
  -11    3   10    -21.06      0.00
   -9    3   10    -18.61      0.00
   -7    3   10     -5.64      0.00
   -5    3   10     -2.38      0.00
   -3    3   10     -6.56      0.00
   -1    3   10     -6.88      0.00
    1    3   10     -0.19      0.00
    3    3   10      4.23      0.00
    5    3   10      1.68      0.00
    7    3   10     -1.69      0.00
    9    3   10     -1.63      0.00
   11    3   10     -0.17      0.00
   13    3   10     -0.56      0.00
   15    3   10      2.29      0.00
   17    3   10      3.01      0.00
   19    3   10      2.19      0.00
   21    3   10      0.05      0.00
  -40    4   10      0.98      0.00
  -38    4   10      0.80      0.00
  -36    4   10     -0.90      0.00
  -34    4   10      1.49      0.00
  -32    4   10     -0.87      0.00
  -30    4   10     -4.86      0.00
  -28    4   10     -3.61      0.00
  -26    4   10     -0.42      0.00
  -24    4   10     -3.88      0.00
  -22    4   10     -4.09      0.00
  -20    4   10     -5.88      0.00
  -18    4   10     -1.97      0.00
  -16    4   10      1.45      0.00
  -14    4   10      3.43      0.00
  -12    4   10     10.20      0.00
  -10    4   10     -0.18      0.00
   -8    4   10    -10.10      0.00
   -6    4   10     -1.68      0.00
   -4    4   10      4.67      0.00
   -2    4   10     -6.40      0.00
    0    4   10     -7.81      0.00
    2    4   10      0.97      0.00
    4    4   10      4.03      0.00
    6    4   10      3.31      0.00
    8    4   10     -1.11      0.00
   10    4   10      1.52      0.00
   12    4   10      0.56      0.00
   14    4   10      0.60      0.00
   16    4   10      2.94      0.00
   18    4   10      2.12      0.00
   20    4   10      0.81      0.00
  -39    5   10      6.82      0.00
  -37    5   10      4.75      0.00
  -35    5   10     -5.99      0.00
  -33    5   10     -9.22      0.00
  -31    5   10      0.42      0.00
  -29    5   10     -3.71      0.00
  -27    5   10     -1.32      0.00
  -25    5   10      1.64      0.00
  -23    5   10     -3.68      0.00
  -21    5   10     -1.45      0.00
  -19    5   10     -2.45      0.00
  -17    5   10     -0.98      0.00
  -15    5   10     -1.31      0.00
  -13    5   10      4.27      0.00
  -11    5   10     13.92      0.00
   -9    5   10      8.09      0.00
   -7    5   10     -1.95      0.00
   -5    5   10     -3.05      0.00
   -3    5   10     -1.63      0.00
   -1    5   10     -3.20      0.00
    1    5   10     -3.20      0.00
    3    5   10     -4.37      0.00
    5    5   10      0.79      0.00
    7    5   10      2.76      0.00
    9    5   10      0.60      0.00
   11    5   10      2.01      0.00
   13    5   10      3.66      0.00
   15    5   10      1.09      0.00
   17    5   10      1.37      0.00
   19    5   10      2.52      0.00
  -38    6   10     -0.86      0.00
  -36    6   10      0.40      0.00
  -34    6   10     -5.89      0.00
  -32    6   10     -4.38      0.00
  -30    6   10      2.93      0.00
  -28    6   10      3.38      0.00
  -26    6   10     -1.70      0.00
  -24    6   10     -1.59      0.00
  -22    6   10      1.19      0.00
  -20    6   10     -1.06      0.00
  -18    6   10     -3.59      0.00
  -16    6   10     -3.43      0.00
  -14    6   10      3.53      0.00
  -12    6   10      5.87      0.00
  -10    6   10     11.53      0.00
   -8    6   10      9.52      0.00
   -6    6   10     -0.29      0.00
   -4    6   10     -2.61      0.00
   -2    6   10      2.05      0.00
    0    6   10      1.94      0.00
    2    6   10     -3.57      0.00
    4    6   10     -3.52      0.00
    6    6   10     -1.07      0.00
    8    6   10      0.66      0.00
   10    6   10      0.08      0.00
   12    6   10      2.24      0.00
   14    6   10      0.99      0.00
   16    6   10      1.23      0.00
   18    6   10      4.53      0.00
  -37    7   10      2.33      0.00
  -35    7   10      4.20      0.00
  -33    7   10      2.11      0.00
  -31    7   10     -2.73      0.00
  -29    7   10      5.93      0.00
  -27    7   10      2.30      0.00
  -25    7   10     -7.18      0.00
  -23    7   10      1.69      0.00
  -21    7   10      2.00      0.00
  -19    7   10     -1.28      0.00
  -17    7   10     -1.54      0.00
  -15    7   10      1.67      0.00
  -13    7   10      4.69      0.00
  -11    7   10      0.84      0.00
   -9    7   10      1.72      0.00
   -7    7   10      5.44      0.00
   -5    7   10      3.11      0.00
   -3    7   10     -0.55      0.00
   -1    7   10      1.85      0.00
    1    7   10      1.80      0.00
    3    7   10      0.24      0.00
    5    7   10     -5.11      0.00
    7    7   10     -4.06      0.00
    9    7   10     -2.19      0.00
   11    7   10     -0.70      0.00
   13    7   10      0.16      0.00
   15    7   10     -1.37      0.00
   17    7   10      1.56      0.00
  -34    8   10      3.51      0.00
  -32    8   10     -1.64      0.00
  -30    8   10     -0.41      0.00
  -28    8   10      0.97      0.00
  -26    8   10     -5.65      0.00
  -24    8   10     -3.87      0.00
  -22    8   10     -2.51      0.00
  -20    8   10      1.53      0.00
  -18    8   10      0.61      0.00
  -16    8   10      0.05      0.00
  -14    8   10      1.17      0.00
  -12    8   10      3.18      0.00
  -10    8   10     -0.30      0.00
   -8    8   10     -1.29      0.00
   -6    8   10      2.19      0.00
   -4    8   10      0.38      0.00
   -2    8   10     -1.11      0.00
    0    8   10      0.89      0.00
    2    8   10      2.68      0.00
    4    8   10     -0.89      0.00
    6    8   10     -4.67      0.00
    8    8   10     -2.60      0.00
   10    8   10     -0.81      0.00
   12    8   10     -0.13      0.00
   14    8   10      1.43      0.00
  -33    9   10     -0.99      0.00
  -31    9   10      0.25      0.00
  -29    9   10      3.41      0.00
  -27    9   10     -4.28      0.00
  -25    9   10     -2.78      0.00
  -23    9   10     -0.05      0.00
  -21    9   10      0.24      0.00
  -19    9   10      0.81      0.00
  -17    9   10      3.07      0.00
  -15    9   10      6.06      0.00
  -13    9   10     -0.32      0.00
  -11    9   10      1.65      0.00
   -9    9   10      4.71      0.00
   -7    9   10      3.43      0.00
   -5    9   10      3.08      0.00
   -3    9   10      0.86      0.00
   -1    9   10     -0.66      0.00
    1    9   10      0.68      0.00
    3    9   10      0.30      0.00
    5    9   10      1.64      0.00
    7    9   10     -0.73      0.00
    9    9   10     -1.01      0.00
   11    9   10      0.50      0.00
   13    9   10      1.07      0.00
  -30   10   10      3.38      0.00
  -28   10   10      0.82      0.00
  -26   10   10     -0.11      0.00
  -24   10   10      0.51      0.00
  -22   10   10      3.23      0.00
  -20   10   10     -1.80      0.00
  -18   10   10      1.38      0.00
  -16   10   10      7.46      0.00
  -14   10   10      2.51      0.00
  -12   10   10     -0.37      0.00
  -10   10   10      3.85      0.00
   -8   10   10      4.12      0.00
   -6   10   10      3.45      0.00
   -4   10   10      1.21      0.00
   -2   10   10      0.00      0.00
    0   10   10      3.62      0.00
    2   10   10      1.12      0.00
    4   10   10     -1.19      0.00
    6   10   10      2.93      0.00
    8   10   10      0.05      0.00
   10   10   10     -1.84      0.00
  -25   11   10      0.10      0.00
  -23   11   10      3.11      0.00
  -21   11   10      1.80      0.00
  -19   11   10     -1.93      0.00
  -17   11   10      2.20      0.00
  -15   11   10     -0.23      0.00
  -13   11   10      2.36      0.00
  -11   11   10      0.05      0.00
   -9   11   10     -2.75      0.00
   -7   11   10      0.31      0.00
   -5   11   10     -1.94      0.00
   -3   11   10     -3.16      0.00
   -1   11   10      2.58      0.00
    1   11   10      2.72      0.00
    3   11   10     -0.40      0.00
    5   11   10      3.04      0.00
  -20   12   10      0.68      0.00
  -18   12   10      1.89      0.00
  -16   12   10      0.15      0.00
  -14   12   10      1.58      0.00
  -12   12   10     -0.42      0.00
  -10   12   10     -4.40      0.00
   -8   12   10      2.00      0.00
   -6   12   10     -0.97      0.00
   -4   12   10     -4.65      0.00
   -2   12   10      0.12      0.00
    0   12   10     -0.69      0.00
  -41    1   11     -1.63      0.00
  -39    1   11      0.04      0.00
  -37    1   11     -3.03      0.00
  -35    1   11     -1.06      0.00
  -33    1   11     -0.03      0.00
  -31    1   11      3.17      0.00
  -29    1   11      5.29      0.00
  -27    1   11      2.61      0.00
  -25    1   11     -5.01      0.00
  -23    1   11     -4.38      0.00
  -21    1   11      0.42      0.00
  -19    1   11     -8.97      0.00
  -17    1   11    -34.96      0.00
  -15    1   11    -26.16      0.00
  -13    1   11      6.98      0.00
  -11    1   11     13.25      0.00
   -9    1   11     -2.88      0.00
   -7    1   11     -3.56      0.00
   -5    1   11     12.05      0.00
   -3    1   11      8.61      0.00
   -1    1   11     -0.53      0.00
    1    1   11     -3.38      0.00
    3    1   11      0.99      0.00
    5    1   11      2.90      0.00
    7    1   11      4.32      0.00
    9    1   11      7.01      0.00
   11    1   11      0.01      0.00
   13    1   11     -0.01      0.00
   15    1   11      0.75      0.00
   17    1   11      0.56      0.00
   19    1   11     -3.72      0.00
   21    1   11     -3.74      0.00
  -42    2   11     -0.21      0.00
  -40    2   11     -1.64      0.00
  -38    2   11     -1.69      0.00
  -36    2   11      0.56      0.00
  -34    2   11      0.11      0.00
  -32    2   11      1.50      0.00
  -30    2   11      4.03      0.00
  -28    2   11      2.44      0.00
  -26    2   11     -1.02      0.00
  -24    2   11      1.59      0.00
  -22    2   11      2.15      0.00
  -20    2   11     -6.62      0.00
  -18    2   11    -22.85      0.00
  -16    2   11    -31.62      0.00
  -14    2   11    -11.75      0.00
  -12    2   11      7.34      0.00
  -10    2   11      3.43      0.00
   -8    2   11     -1.59      0.00
   -6    2   11     -0.23      0.00
   -4    2   11      4.70      0.00
   -2    2   11      5.54      0.00
    0    2   11     -1.45      0.00
    2    2   11     -3.20      0.00
    4    2   11      2.68      0.00
    6    2   11      4.65      0.00
    8    2   11      2.22      0.00
   10    2   11      2.13      0.00
   12    2   11      2.92      0.00
   14    2   11      0.67      0.00
   16    2   11     -0.38      0.00
   18    2   11     -3.65      0.00
   20    2   11     -1.71      0.00
  -41    3   11     -0.54      0.00
  -39    3   11      0.10      0.00
  -37    3   11      0.26      0.00
  -35    3   11     -2.63      0.00
  -33    3   11      0.83      0.00
  -31    3   11      2.36      0.00
  -29    3   11     -0.08      0.00
  -27    3   11     -0.67      0.00
  -25    3   11      5.80      0.00
  -23    3   11      5.34      0.00
  -21    3   11      1.90      0.00
  -19    3   11     -1.74      0.00
  -17    3   11     -0.09      0.00
  -15    3   11     -9.09      0.00
  -13    3   11    -25.01      0.00
  -11    3   11    -15.44      0.00
   -9    3   11     -0.26      0.00
   -7    3   11     -5.15      0.00
   -5    3   11    -10.25      0.00
   -3    3   11      2.96      0.00
   -1    3   11      5.12      0.00
    1    3   11      0.24      0.00
    3    3   11     -0.66      0.00
    5    3   11      1.36      0.00
    7    3   11      1.88      0.00
    9    3   11     -1.97      0.00
   11    3   11      2.01      0.00
   13    3   11      0.58      0.00
   15    3   11     -1.02      0.00
   17    3   11     -0.52      0.00
   19    3   11      0.70      0.00
  -40    4   11     -5.82      0.00
  -38    4   11     -2.17      0.00
  -36    4   11      2.88      0.00
  -34    4   11      2.36      0.00
  -32    4   11     -3.02      0.00
  -30    4   11     -0.44      0.00
  -28    4   11     -2.92      0.00
  -26    4   11      0.31      0.00
  -24    4   11      3.75      0.00
  -22    4   11     -0.12      0.00
  -20    4   11      1.81      0.00
  -18    4   11      5.02      0.00
  -16    4   11      5.76      0.00
  -14    4   11    -10.95      0.00
  -12    4   11    -25.46      0.00
  -10    4   11    -13.88      0.00
   -8    4   11     -0.19      0.00
   -6    4   11     -0.43      0.00
   -4    4   11     -1.51      0.00
   -2    4   11      1.77      0.00
    0    4   11      3.91      0.00
    2    4   11      5.24      0.00
    4    4   11      1.93      0.00
    6    4   11     -0.24      0.00
    8    4   11     -0.14      0.00
   10    4   11     -0.54      0.00
   12    4   11     -0.43      0.00
   14    4   11      2.91      0.00
   16    4   11      1.19      0.00
   18    4   11     -0.73      0.00
  -39    5   11      3.37      0.00
  -37    5   11      1.05      0.00
  -35    5   11      2.64      0.00
  -33    5   11     -1.45      0.00
  -31    5   11     -4.78      0.00
  -29    5   11     -4.24      0.00
  -27    5   11     -1.10      0.00
  -25    5   11     -1.93      0.00
  -23    5   11     -0.35      0.00
  -21    5   11      0.73      0.00
  -19    5   11      1.95      0.00
  -17    5   11      3.95      0.00
  -15    5   11     -0.29      0.00
  -13    5   11     -3.52      0.00
  -11    5   11    -11.07      0.00
   -9    5   11     -6.02      0.00
   -7    5   11      5.05      0.00
   -5    5   11      3.81      0.00
   -3    5   11     -3.62      0.00
   -1    5   11     -0.79      0.00
    1    5   11      4.57      0.00
    3    5   11      5.63      0.00
    5    5   11      2.94      0.00
    7    5   11     -1.10      0.00
    9    5   11      0.66      0.00
   11    5   11     -0.99      0.00
   13    5   11      0.63      0.00
   15    5   11      1.37      0.00
   17    5   11     -0.52      0.00
  -38    6   11      1.09      0.00
  -36    6   11     -7.87      0.00
  -34    6   11     -5.86      0.00
  -32    6   11      2.11      0.00
  -30    6   11     -6.44      0.00
  -28    6   11     -1.40      0.00
  -26    6   11      1.21      0.00
  -24    6   11     -6.49      0.00
  -22    6   11     -1.05      0.00
  -20    6   11      0.17      0.00
  -18    6   11     -0.32      0.00
  -16    6   11     -2.36      0.00
  -14    6   11     -1.23      0.00
  -12    6   11      4.05      0.00
  -10    6   11      1.33      0.00
   -8    6   11     -2.96      0.00
   -6    6   11     -0.83      0.00
   -4    6   11     -0.82      0.00
   -2    6   11     -4.42      0.00
    0    6   11     -4.44      0.00
    2    6   11     -3.41      0.00
    4    6   11      2.09      0.00
    6    6   11      0.53      0.00
    8    6   11     -0.77      0.00
   10    6   11      0.84      0.00
   12    6   11      1.45      0.00
   14    6   11      0.39      0.00
   16    6   11     -0.87      0.00
  -37    7   11     -0.35      0.00
  -35    7   11     -6.20      0.00
  -33    7   11     -0.09      0.00
  -31    7   11      2.89      0.00
  -29    7   11      2.81      0.00
  -27    7   11     -0.08      0.00
  -25    7   11     -3.25      0.00
  -23    7   11     -0.60      0.00
  -21    7   11     -3.51      0.00
  -19    7   11     -3.98      0.00
  -17    7   11     -3.06      0.00
  -15    7   11      0.71      0.00
  -13    7   11      1.66      0.00
  -11    7   11      6.10      0.00
   -9    7   11      3.70      0.00
   -7    7   11     -1.77      0.00
   -5    7   11     -1.41      0.00
   -3    7   11     -1.42      0.00
   -1    7   11     -4.07      0.00
    1    7   11     -6.57      0.00
    3    7   11     -3.77      0.00
    5    7   11     -0.77      0.00
    7    7   11     -1.81      0.00
    9    7   11     -1.79      0.00
   11    7   11     -0.14      0.00
   13    7   11     -2.12      0.00
   15    7   11     -1.04      0.00
  -34    8   11      1.42      0.00
  -32    8   11      0.66      0.00
  -30    8   11      7.05      0.00
  -28    8   11      5.41      0.00
  -26    8   11     -4.89      0.00
  -24    8   11     -0.83      0.00
  -22    8   11      0.20      0.00
  -20    8   11     -2.01      0.00
  -18    8   11     -3.52      0.00
  -16    8   11     -1.27      0.00
  -14    8   11      2.90      0.00
  -12    8   11     -0.50      0.00
  -10    8   11      0.64      0.00
   -8    8   11      2.45      0.00
   -6    8   11      0.06      0.00
   -4    8   11     -0.91      0.00
   -2    8   11     -0.23      0.00
    0    8   11     -1.37      0.00
    2    8   11     -3.27      0.00
    4    8   11     -7.61      0.00
    6    8   11     -4.05      0.00
    8    8   11     -2.32      0.00
   10    8   11     -1.56      0.00
   12    8   11     -1.04      0.00
  -33    9   11     -2.35      0.00
  -31    9   11      2.27      0.00
  -29    9   11      2.18      0.00
  -27    9   11     -4.41      0.00
  -25    9   11     -3.94      0.00
  -23    9   11     -3.05      0.00
  -21    9   11      1.60      0.00
  -19    9   11     -3.46      0.00
  -17    9   11     -5.97      0.00
  -15    9   11      1.48      0.00
  -13    9   11      5.67      0.00
  -11    9   11     -0.16      0.00
   -9    9   11     -1.50      0.00
   -7    9   11      1.90      0.00
   -5    9   11      2.25      0.00
   -3    9   11      0.71      0.00
   -1    9   11      0.46      0.00
    1    9   11      2.40      0.00
    3    9   11     -1.87      0.00
    5    9   11     -5.28      0.00
    7    9   11      0.27      0.00
    9    9   11      1.24      0.00
   11    9   11     -0.49      0.00
  -30   10   11      4.25      0.00
  -28   10   11     -3.55      0.00
  -26   10   11     -2.68      0.00
  -24   10   11     -1.05      0.00
  -22   10   11      0.36      0.00
  -20   10   11      0.90      0.00
  -18   10   11      1.36      0.00
  -16   10   11      2.93      0.00
  -14   10   11     -1.42      0.00
  -12   10   11      4.03      0.00
  -10   10   11      4.68      0.00
   -8   10   11      2.98      0.00
   -6   10   11      5.26      0.00
   -4   10   11      2.64      0.00
   -2   10   11     -0.76      0.00
    0   10   11      1.42      0.00
    2   10   11      0.93      0.00
    4   10   11     -2.21      0.00
    6   10   11     -3.08      0.00
    8   10   11      0.46      0.00
  -25   11   11     -1.28      0.00
  -23   11   11      0.09      0.00
  -21   11   11     -3.54      0.00
  -19   11   11     -0.97      0.00
  -17   11   11      2.78      0.00
  -15   11   11     -0.30      0.00
  -13   11   11      3.09      0.00
  -11   11   11      5.85      0.00
   -9   11   11      0.09      0.00
   -7   11   11      3.27      0.00
   -5   11   11      2.93      0.00
   -3   11   11     -0.26      0.00
   -1   11   11      3.89      0.00
    1   11   11      1.35      0.00
    3   11   11     -3.78      0.00
  -20   12   11     -2.49      0.00
  -18   12   11      2.58      0.00
  -16   12   11      0.78      0.00
  -14   12   11      1.13      0.00
  -12   12   11     -1.23      0.00
  -10   12   11     -1.49      0.00
   -8   12   11      1.60      0.00
   -6   12   11      0.32      0.00
   -4   12   11     -3.04      0.00
   -2   12   11      1.25      0.00
  -42    0   12      3.56      0.00
  -40    0   12      1.95      0.00
  -38    0   12      3.41      0.00
  -36    0   12     -1.86      0.00
  -34    0   12     -3.80      0.00
  -32    0   12     -6.82      0.00
  -30    0   12     -5.26      0.00
  -28    0   12     -0.37      0.00
  -26    0   12      6.31      0.00
  -24    0   12      2.09      0.00
  -22    0   12     -1.31      0.00
  -20    0   12     19.17      0.00
  -18    0   12     45.26      0.00
  -16    0   12     27.31      0.00
  -14    0   12     -4.69      0.00
  -12    0   12     -4.21      0.00
  -10    0   12      8.68      0.00
   -8    0   12      0.65      0.00
   -6    0   12    -15.01      0.00
   -4    0   12     -7.49      0.00
   -2    0   12      2.10      0.00
    0    0   12      4.48      0.00
    2    0   12     -1.39      0.00
    4    0   12     -3.11      0.00
    6    0   12     -5.60      0.00
    8    0   12     -6.80      0.00
   10    0   12      1.21      0.00
   12    0   12     -1.15      0.00
   14    0   12     -2.54      0.00
   16    0   12      1.11      0.00
   18    0   12      6.78      0.00
  -43    1   12      3.85      0.00
  -41    1   12      4.86      0.00
  -39    1   12      2.16      0.00
  -37    1   12     -2.30      0.00
  -35    1   12     -2.75      0.00
  -33    1   12     -3.07      0.00
  -31    1   12     -3.31      0.00
  -29    1   12     -1.28      0.00
  -27    1   12     -0.39      0.00
  -25    1   12     -1.67      0.00
  -23    1   12      0.09      0.00
  -21    1   12      7.47      0.00
  -19    1   12     20.61      0.00
  -17    1   12     23.43      0.00
  -15    1   12      7.72      0.00
  -13    1   12     -0.33      0.00
  -11    1   12      3.14      0.00
   -9    1   12      1.93      0.00
   -7    1   12     -1.87      0.00
   -5    1   12     -4.25      0.00
   -3    1   12     -1.92      0.00
   -1    1   12      3.54      0.00
    1    1   12      2.12      0.00
    3    1   12     -2.76      0.00
    5    1   12     -2.48      0.00
    7    1   12     -1.46      0.00
    9    1   12     -3.06      0.00
   11    1   12     -3.38      0.00
   13    1   12     -2.55      0.00
   15    1   12     -0.45      0.00
   17    1   12      4.48      0.00
   19    1   12      1.92      0.00
  -42    2   12      1.32      0.00
  -40    2   12      1.21      0.00
  -38    2   12     -0.37      0.00
  -36    2   12      0.59      0.00
  -34    2   12     -2.82      0.00
  -32    2   12     -0.29      0.00
  -30    2   12      2.27      0.00
  -28    2   12      0.23      0.00
  -26    2   12     -6.42      0.00
  -24    2   12     -3.38      0.00
  -22    2   12      0.95      0.00
  -20    2   12     -3.87      0.00
  -18    2   12    -11.45      0.00
  -16    2   12      3.58      0.00
  -14    2   12     23.08      0.00
  -12    2   12     14.12      0.00
  -10    2   12     -0.64      0.00
   -8    2   12      4.37      0.00
   -6    2   12     10.62      0.00
   -4    2   12      0.04      0.00
   -2    2   12     -2.16      0.00
    0    2   12     -0.90      0.00
    2    2   12      0.78      0.00
    4    2   12     -0.10      0.00
    6    2   12      1.32      0.00
    8    2   12      2.11      0.00
   10    2   12     -3.67      0.00
   12    2   12     -0.94      0.00
   14    2   12     -0.56      0.00
   16    2   12     -0.36      0.00
   18    2   12     -1.24      0.00
  -41    3   12      3.02      0.00
  -39    3   12      2.15      0.00
  -37    3   12      1.91      0.00
  -35    3   12      0.01      0.00
  -33    3   12      1.71      0.00
  -31    3   12      2.70      0.00
  -29    3   12      2.78      0.00
  -27    3   12     -0.91      0.00
  -25    3   12      0.44      0.00
  -23    3   12      1.48      0.00
  -21    3   12     -4.48      0.00
  -19    3   12    -12.63      0.00
  -17    3   12    -11.95      0.00
  -15    3   12      8.94      0.00
  -13    3   12     20.38      0.00
  -11    3   12      9.29      0.00
   -9    3   12      0.36      0.00
   -7    3   12      2.49      0.00
   -5    3   12      5.37      0.00
   -3    3   12      3.30      0.00
   -1    3   12     -1.58      0.00
    1    3   12     -2.49      0.00
    3    3   12      1.70      0.00
    5    3   12      2.46      0.00
    7    3   12     -0.16      0.00
    9    3   12     -0.43      0.00
   11    3   12     -0.02      0.00
   13    3   12     -2.25      0.00
   15    3   12     -0.83      0.00
   17    3   12      0.09      0.00
  -40    4   12     -0.76      0.00
  -38    4   12      0.88      0.00
  -36    4   12     -0.05      0.00
  -34    4   12      3.37      0.00
  -32    4   12      2.95      0.00
  -30    4   12      2.53      0.00
  -28    4   12      1.44      0.00
  -26    4   12      3.66      0.00
  -24    4   12      1.66      0.00
  -22    4   12      1.49      0.00
  -20    4   12      0.03      0.00
  -18    4   12     -3.73      0.00
  -16    4   12     -7.20      0.00
  -14    4   12     -7.99      0.00
  -12    4   12      4.24      0.00
  -10    4   12      5.00      0.00
   -8    4   12     -3.84      0.00
   -6    4   12     -0.45      0.00
   -4    4   12      8.28      0.00
   -2    4   12      2.96      0.00
    0    4   12     -2.31      0.00
    2    4   12     -4.08      0.00
    4    4   12     -0.86      0.00
    6    4   12      0.58      0.00
    8    4   12     -2.82      0.00
   10    4   12     -0.02      0.00
   12    4   12     -1.84      0.00
   14    4   12     -2.97      0.00
   16    4   12     -0.94      0.00
   18    4   12      0.87      0.00
  -39    5   12      1.19      0.00
  -37    5   12      8.67      0.00
  -35    5   12      4.75      0.00
  -33    5   12     -2.19      0.00
  -31    5   12      3.15      0.00
  -29    5   12     -0.89      0.00
  -27    5   12      1.22      0.00
  -25    5   12      3.69      0.00
  -23    5   12     -1.34      0.00
  -21    5   12      0.90      0.00
  -19    5   12      0.88      0.00
  -17    5   12     -0.64      0.00
  -15    5   12     -8.37      0.00
  -13    5   12    -13.26      0.00
  -11    5   12     -3.83      0.00
   -9    5   12      3.77      0.00
   -7    5   12      1.15      0.00
   -5    5   12      2.32      0.00
   -3    5   12      4.29      0.00
   -1    5   12      3.23      0.00
    1    5   12      2.20      0.00
    3    5   12     -1.99      0.00
    5    5   12     -1.39      0.00
    7    5   12     -2.15      0.00
    9    5   12     -4.25      0.00
   11    5   12     -2.79      0.00
   13    5   12     -0.22      0.00
   15    5   12     -2.13      0.00
   17    5   12     -1.59      0.00
  -38    6   12      2.43      0.00
  -36    6   12      6.92      0.00
  -34    6   12      0.73      0.00
  -32    6   12     -2.04      0.00
  -30    6   12     -1.44      0.00
  -28    6   12      2.79      0.00
  -26    6   12      0.86      0.00
  -24    6   12     -0.45      0.00
  -22    6   12      2.83      0.00
  -20    6   12      1.41      0.00
  -18    6   12     -0.80      0.00
  -16    6   12     -6.30      0.00
  -14    6   12     -8.49      0.00
  -12    6   12    -11.35      0.00
  -10    6   12     -4.30      0.00
   -8    6   12      1.51      0.00
   -6    6   12     -0.65      0.00
   -4    6   12     -2.60      0.00
   -2    6   12      0.89      0.00
    0    6   12      5.14      0.00
    2    6   12      3.79      0.00
    4    6   12     -0.35      0.00
    6    6   12     -0.23      0.00
    8    6   12     -0.27      0.00
   10    6   12     -2.70      0.00
   12    6   12      0.08      0.00
   14    6   12     -1.04      0.00
  -37    7   12     -4.51      0.00
  -35    7   12     -1.10      0.00
  -33    7   12      0.43      0.00
  -31    7   12     -8.11      0.00
  -29    7   12      0.77      0.00
  -27    7   12      4.51      0.00
  -25    7   12     -5.58      0.00
  -23    7   12     -0.92      0.00
  -21    7   12      0.65      0.00
  -19    7   12     -3.37      0.00
  -17    7   12     -6.30      0.00
  -15    7   12     -3.39      0.00
  -13    7   12      0.43      0.00
  -11    7   12     -5.09      0.00
   -9    7   12     -7.02      0.00
   -7    7   12     -1.66      0.00
   -5    7   12     -1.98      0.00
   -3    7   12     -3.53      0.00
   -1    7   12     -0.21      0.00
    1    7   12      3.69      0.00
    3    7   12      7.16      0.00
    5    7   12      3.18      0.00
    7    7   12      2.93      0.00
    9    7   12      2.02      0.00
   11    7   12      1.52      0.00
   13    7   12      1.48      0.00
  -36    8   12     -3.99      0.00
  -34    8   12      2.01      0.00
  -32    8   12     -1.86      0.00
  -30    8   12      2.13      0.00
  -28    8   12      4.95      0.00
  -26    8   12      0.87      0.00
  -24    8   12      1.04      0.00
  -22    8   12     -1.15      0.00
  -20    8   12      1.10      0.00
  -18    8   12     -0.32      0.00
  -16    8   12     -2.95      0.00
  -14    8   12     -2.50      0.00
  -12    8   12      2.78      0.00
  -10    8   12     -0.26      0.00
   -8    8   12     -3.71      0.00
   -6    8   12     -1.76      0.00
   -4    8   12     -1.16      0.00
   -2    8   12     -1.28      0.00
    0    8   12     -0.12      0.00
    2    8   12      4.06      0.00
    4    8   12      4.24      0.00
    6    8   12      0.13      0.00
    8    8   12      0.86      0.00
   10    8   12      1.45      0.00
   12    8   12     -0.38      0.00
  -33    9   12     -1.86      0.00
  -31    9   12      0.43      0.00
  -29    9   12      6.39      0.00
  -27    9   12     -1.13      0.00
  -25    9   12     -0.91      0.00
  -23    9   12      0.94      0.00
  -21    9   12     -0.68      0.00
  -19    9   12     -5.18      0.00
  -17    9   12     -2.95      0.00
  -15    9   12      2.48      0.00
  -13    9   12     -2.09      0.00
  -11    9   12     -1.90      0.00
   -9    9   12     -2.25      0.00
   -7    9   12     -2.46      0.00
   -5    9   12      0.25      0.00
   -3    9   12      0.08      0.00
   -1    9   12     -0.79      0.00
    1    9   12     -1.41      0.00
    3    9   12     -3.99      0.00
    5    9   12     -1.28      0.00
    7    9   12     -2.13      0.00
    9    9   12     -2.38      0.00
  -30   10   12     -0.17      0.00
  -28   10   12     -0.17      0.00
  -26   10   12     -0.45      0.00
  -24   10   12     -0.01      0.00
  -22   10   12      2.83      0.00
  -20   10   12     -5.12      0.00
  -18   10   12     -8.06      0.00
  -16   10   12     -0.62      0.00
  -14   10   12     -0.93      0.00
  -12   10   12     -5.10      0.00
  -10   10   12     -2.36      0.00
   -8   10   12     -1.26      0.00
   -6   10   12      0.38      0.00
   -4   10   12     -0.86      0.00
   -2   10   12     -3.05      0.00
    0   10   12      0.46      0.00
    2   10   12     -0.86      0.00
    4   10   12     -2.84      0.00
    6   10   12      1.00      0.00
  -25   11   12     -1.18      0.00
  -23   11   12      3.05      0.00
  -21   11   12      1.29      0.00
  -19   11   12     -2.80      0.00
  -17   11   12     -2.46      0.00
  -15   11   12     -2.75      0.00
  -13   11   12      3.33      0.00
  -11   11   12      1.20      0.00
   -9   11   12      0.05      0.00
   -7   11   12      3.84      0.00
   -5   11   12      2.07      0.00
   -3   11   12     -3.32      0.00
   -1   11   12     -0.51      0.00
    1   11   12      0.92      0.00
    3   11   12     -2.05      0.00
  -20   12   12     -1.55      0.00
  -18   12   12     -0.30      0.00
  -16   12   12     -2.18      0.00
  -14   12   12      1.93      0.00
  -12   12   12      2.62      0.00
  -10   12   12     -1.50      0.00
   -8   12   12      4.19      0.00
   -6   12   12      2.89      0.00
   -4   12   12      0.21      0.00
  -43    1   13      1.04      0.00
  -41    1   13      1.34      0.00
  -39    1   13      2.33      0.00
  -37    1   13     -0.84      0.00
  -35    1   13     -0.33      0.00
  -33    1   13     -4.37      0.00
  -31    1   13     -3.02      0.00
  -29    1   13      1.41      0.00
  -27    1   13      6.16      0.00
  -25    1   13      0.26      0.00
  -23    1   13      0.45      0.00
  -21    1   13     18.17      0.00
  -19    1   13     28.17      0.00
  -17    1   13      6.11      0.00
  -15    1   13    -13.74      0.00
  -13    1   13     -4.16      0.00
  -11    1   13      6.03      0.00
   -9    1   13     -4.11      0.00
   -7    1   13    -11.99      0.00
   -5    1   13     -2.02      0.00
   -3    1   13      1.70      0.00
   -1    1   13      1.12      0.00
    1    1   13     -3.64      0.00
    3    1   13     -3.99      0.00
    5    1   13     -6.18      0.00
    7    1   13     -4.38      0.00
    9    1   13      1.83      0.00
   11    1   13     -2.08      0.00
   13    1   13     -1.71      0.00
   15    1   13      0.99      0.00
   17    1   13      3.12      0.00
  -42    2   13      1.60      0.00
  -40    2   13     -0.82      0.00
  -38    2   13     -2.24      0.00
  -36    2   13     -0.15      0.00
  -34    2   13     -2.49      0.00
  -32    2   13     -3.97      0.00
  -30    2   13     -2.26      0.00
  -28    2   13     -1.23      0.00
  -26    2   13     -2.11      0.00
  -24    2   13      1.54      0.00
  -22    2   13     10.12      0.00
  -20    2   13     21.10      0.00
  -18    2   13     17.70      0.00
  -16    2   13     -1.30      0.00
  -14    2   13     -5.99      0.00
  -12    2   13      1.64      0.00
  -10    2   13      3.84      0.00
   -8    2   13     -0.20      0.00
   -6    2   13     -4.34      0.00
   -4    2   13     -1.76      0.00
   -2    2   13      3.70      0.00
    0    2   13     -0.60      0.00
    2    2   13     -6.73      0.00
    4    2   13     -4.32      0.00
    6    2   13     -1.80      0.00
    8    2   13     -3.88      0.00
   10    2   13     -4.17      0.00
   12    2   13     -2.30      0.00
   14    2   13     -0.30      0.00
   16    2   13      2.29      0.00
  -43    3   13     -0.85      0.00
  -41    3   13     -0.58      0.00
  -39    3   13      0.67      0.00
  -37    3   13      1.47      0.00
  -35    3   13     -3.57      0.00
  -33    3   13     -1.36      0.00
  -31    3   13     -0.17      0.00
  -29    3   13     -1.33      0.00
  -27    3   13     -6.31      0.00
  -25    3   13     -3.18      0.00
  -23    3   13     -1.21      0.00
  -21    3   13     -1.98      0.00
  -19    3   13      2.15      0.00
  -17    3   13     15.72      0.00
  -15    3   13     21.22      0.00
  -13    3   13      4.99      0.00
  -11    3   13      0.05      0.00
   -9    3   13      8.95      0.00
   -7    3   13      4.80      0.00
   -5    3   13     -5.81      0.00
   -3    3   13     -1.53      0.00
   -1    3   13      1.21      0.00
    1    3   13      1.05      0.00
    3    3   13     -2.03      0.00
    5    3   13     -0.26      0.00
    7    3   13      0.37      0.00
    9    3   13     -3.37      0.00
   11    3   13     -0.27      0.00
   13    3   13      0.28      0.00
   15    3   13     -0.40      0.00
   17    3   13     -1.15      0.00
  -42    4   13      2.70      0.00
  -40    4   13     -0.13      0.00
  -38    4   13     -0.30      0.00
  -36    4   13      0.85      0.00
  -34    4   13      3.30      0.00
  -32    4   13      2.03      0.00
  -30    4   13      3.52      0.00
  -28    4   13     -0.88      0.00
  -26    4   13     -1.41      0.00
  -24    4   13     -0.48      0.00
  -22    4   13     -4.12      0.00
  -20    4   13     -5.32      0.00
  -18    4   13      0.50      0.00
  -16    4   13     15.57      0.00
  -14    4   13     18.05      0.00
  -12    4   13      3.61      0.00
  -10    4   13     -3.13      0.00
   -8    4   13      1.13      0.00
   -6    4   13     -0.14      0.00
   -4    4   13     -1.31      0.00
   -2    4   13     -1.50      0.00
    0    4   13     -1.56      0.00
    2    4   13      1.17      0.00
    4    4   13      1.85      0.00
    6    4   13      1.21      0.00
    8    4   13      0.51      0.00
   10    4   13     -1.02      0.00
   12    4   13     -1.56      0.00
   14    4   13      1.74      0.00
   16    4   13      1.54      0.00
  -41    5   13     -3.33      0.00
  -39    5   13      0.13      0.00
  -37    5   13     -0.77      0.00
  -35    5   13      2.05      0.00
  -33    5   13      1.60      0.00
  -31    5   13      3.71      0.00
  -29    5   13      2.11      0.00
  -27    5   13      2.92      0.00
  -25    5   13     -0.69      0.00
  -23    5   13     -1.80      0.00
  -21    5   13     -0.93      0.00
  -19    5   13     -1.96      0.00
  -17    5   13      2.56      0.00
  -15    5   13      6.21      0.00
  -13    5   13      8.06      0.00
  -11    5   13     -0.33      0.00
   -9    5   13     -3.39      0.00
   -7    5   13      1.61      0.00
   -5    5   13      3.62      0.00
   -3    5   13     -0.88      0.00
   -1    5   13     -4.43      0.00
    1    5   13     -3.67      0.00
    3    5   13      2.02      0.00
    5    5   13      1.39      0.00
    7    5   13     -0.52      0.00
    9    5   13      0.99      0.00
   11    5   13     -1.74      0.00
   13    5   13     -1.25      0.00
   15    5   13      0.23      0.00
  -40    6   13      2.58      0.00
  -38    6   13      7.14      0.00
  -36    6   13      0.88      0.00
  -34    6   13     -3.05      0.00
  -32    6   13      3.85      0.00
  -30    6   13     -0.58      0.00
  -28    6   13      3.80      0.00
  -26    6   13      7.59      0.00
  -24    6   13     -0.29      0.00
  -22    6   13      2.56      0.00
  -20    6   13      6.34      0.00
  -18    6   13      4.73      0.00
  -16    6   13     -1.56      0.00
  -14    6   13     -4.20      0.00
  -12    6   13      2.91      0.00
  -10    6   13      5.30      0.00
   -8    6   13      1.01      0.00
   -6    6   13      4.62      0.00
   -4    6   13      6.09      0.00
   -2    6   13      3.52      0.00
    0    6   13      0.96      0.00
    2    6   13     -0.71      0.00
    4    6   13      1.34      0.00
    6    6   13     -1.82      0.00
    8    6   13     -3.11      0.00
   10    6   13     -1.90      0.00
   12    6   13     -0.42      0.00
   14    6   13      0.38      0.00
  -37    7   13      4.46      0.00
  -35    7   13     -4.16      0.00
  -33    7   13     -3.74      0.00
  -31    7   13     -4.26      0.00
  -29    7   13      1.41      0.00
  -27    7   13      2.96      0.00
  -25    7   13      1.68      0.00
  -23    7   13      3.78      0.00
  -21    7   13      2.23      0.00
  -19    7   13      2.25      0.00
  -17    7   13      0.04      0.00
  -15    7   13     -2.38      0.00
  -13    7   13     -5.17      0.00
  -11    7   13      1.44      0.00
   -9    7   13      5.06      0.00
   -7    7   13      3.71      0.00
   -5    7   13      3.25      0.00
   -3    7   13      4.60      0.00
   -1    7   13      5.93      0.00
    1    7   13      2.93      0.00
    3    7   13      1.12      0.00
    5    7   13      2.91      0.00
    7    7   13     -0.22      0.00
    9    7   13     -1.90      0.00
   11    7   13      0.94      0.00
  -36    8   13     -3.09      0.00
  -34    8   13     -3.93      0.00
  -32    8   13    -10.28      0.00
  -30    8   13     -4.07      0.00
  -28    8   13      4.15      0.00
  -26    8   13     -2.50      0.00
  -24    8   13     -1.27      0.00
  -22    8   13      1.52      0.00
  -20    8   13      1.75      0.00
  -18    8   13     -1.64      0.00
  -16    8   13     -2.40      0.00
  -14    8   13     -0.51      0.00
  -12    8   13     -3.55      0.00
  -10    8   13     -1.13      0.00
   -8    8   13      1.92      0.00
   -6    8   13     -0.10      0.00
   -4    8   13      0.68      0.00
   -2    8   13      2.39      0.00
    0    8   13      6.50      0.00
    2    8   13      9.37      0.00
    4    8   13      3.91      0.00
    6    8   13      3.43      0.00
    8    8   13      1.52      0.00
   10    8   13      0.33      0.00
  -33    9   13     -4.79      0.00
  -31    9   13     -0.24      0.00
  -29    9   13      2.17      0.00
  -27    9   13      1.25      0.00
  -25    9   13      0.45      0.00
  -23    9   13      0.07      0.00
  -21    9   13      6.37      0.00
  -19    9   13      3.98      0.00
  -17    9   13     -3.99      0.00
  -15    9   13     -3.14      0.00
  -13    9   13      2.42      0.00
  -11    9   13     -0.61      0.00
   -9    9   13     -2.97      0.00
   -7    9   13     -2.61      0.00
   -5    9   13     -2.06      0.00
   -3    9   13     -2.22      0.00
   -1    9   13     -0.98      0.00
    1    9   13      4.11      0.00
    3    9   13      2.92      0.00
    5    9   13     -1.52      0.00
    7    9   13      0.98      0.00
  -30   10   13      3.62      0.00
  -28   10   13     -1.29      0.00
  -26   10   13     -0.90      0.00
  -24   10   13     -0.23      0.00
  -22   10   13      1.14      0.00
  -20   10   13      0.25      0.00
  -18   10   13      2.42      0.00
  -16   10   13      2.00      0.00
  -14   10   13     -4.40      0.00
  -12   10   13     -1.59      0.00
  -10   10   13     -2.81      0.00
   -8   10   13     -3.69      0.00
   -6   10   13     -0.45      0.00
   -4   10   13     -1.05      0.00
   -2   10   13     -3.37      0.00
    0   10   13     -1.63      0.00
    2   10   13     -0.12      0.00
    4   10   13     -0.47      0.00
  -25   11   13      2.31      0.00
  -23   11   13      3.13      0.00
  -21   11   13     -1.50      0.00
  -19   11   13     -1.84      0.00
  -17   11   13      0.70      0.00
  -15   11   13     -4.35      0.00
  -13   11   13     -2.76      0.00
  -11   11   13      1.85      0.00
   -9   11   13     -1.75      0.00
   -7   11   13      0.22      0.00
   -5   11   13     -1.42      0.00
   -3   11   13     -4.80      0.00
   -1   11   13      0.40      0.00
  -18   12   13      0.02      0.00
  -16   12   13      1.15      0.00
  -14   12   13      3.11      0.00
  -12   12   13     -0.22      0.00
  -10   12   13     -0.46      0.00
   -8   12   13      2.63      0.00
  -44    0   14     -1.77      0.00
  -42    0   14     -2.55      0.00
  -40    0   14     -0.68      0.00
  -38    0   14      3.62      0.00
  -36    0   14      3.11      0.00
  -34    0   14      5.41      0.00
  -32    0   14      0.07      0.00
  -30    0   14     -4.27      0.00
  -28    0   14     -5.43      0.00
  -26    0   14      2.05      0.00
  -24    0   14     -4.88      0.00
  -22    0   14    -27.56      0.00
  -20    0   14    -29.82      0.00
  -18    0   14     -3.67      0.00
  -16    0   14     10.08      0.00
  -14    0   14     -2.04      0.00
  -12    0   14     -5.82      0.00
  -10    0   14      8.89      0.00
   -8    0   14     13.29      0.00
   -6    0   14      1.09      0.00
   -4    0   14     -2.17      0.00
   -2    0   14     -0.38      0.00
    0    0   14      4.32      0.00
    2    0   14      4.17      0.00
    4    0   14      6.04      0.00
    6    0   14      1.81      0.00
    8    0   14     -2.82      0.00
   10    0   14      2.67      0.00
   12    0   14      1.23      0.00
   14    0   14     -3.04      0.00
   16    0   14     -3.45      0.00
  -43    1   14     -2.31      0.00
  -41    1   14      0.80      0.00
  -39    1   14      2.52      0.00
  -37    1   14      1.77      0.00
  -35    1   14      2.62      0.00
  -33    1   14      2.24      0.00
  -31    1   14      1.09      0.00
  -29    1   14      0.71      0.00
  -27    1   14      0.04      0.00
  -25    1   14     -2.62      0.00
  -23    1   14     -9.34      0.00
  -21    1   14    -17.15      0.00
  -19    1   14    -11.39      0.00
  -17    1   14      0.08      0.00
  -15    1   14     -0.59      0.00
  -13    1   14     -3.55      0.00
  -11    1   14     -0.67      0.00
   -9    1   14      3.17      0.00
   -7    1   14      3.80      0.00
   -5    1   14     -0.58      0.00
   -3    1   14     -3.09      0.00
   -1    1   14      2.43      0.00
    1    1   14      4.61      0.00
    3    1   14      1.14      0.00
    5    1   14      1.25      0.00
    7    1   14      3.20      0.00
    9    1   14      2.75      0.00
   11    1   14      1.61      0.00
   13    1   14     -1.66      0.00
   15    1   14     -3.56      0.00
  -44    2   14     -0.46      0.00
  -42    2   14      0.22      0.00
  -40    2   14     -0.25      0.00
  -38    2   14      0.46      0.00
  -36    2   14      4.27      0.00
  -34    2   14     -0.76      0.00
  -32    2   14     -0.48      0.00
  -30    2   14      2.85      0.00
  -28    2   14      6.64      0.00
  -26    2   14      1.01      0.00
  -24    2   14      1.66      0.00
  -22    2   14      8.99      0.00
  -20    2   14      4.66      0.00
  -18    2   14    -13.80      0.00
  -16    2   14    -19.19      0.00
  -14    2   14     -3.27      0.00
  -12    2   14      0.87      0.00
  -10    2   14     -8.06      0.00
   -8    2   14     -5.05      0.00
   -6    2   14      3.94      0.00
   -4    2   14      1.35      0.00
   -2    2   14      0.30      0.00
    0    2   14     -0.72      0.00
    2    2   14      0.22      0.00
    4    2   14     -1.82      0.00
    6    2   14      0.81      0.00
    8    2   14      3.23      0.00
   10    2   14     -0.49      0.00
   12    2   14     -0.02      0.00
   14    2   14      0.16      0.00
   16    2   14      1.00      0.00
  -43    3   14     -1.73      0.00
  -41    3   14     -2.30      0.00
  -39    3   14     -2.28      0.00
  -37    3   14      0.21      0.00
  -35    3   14     -2.12      0.00
  -33    3   14     -3.04      0.00
  -31    3   14     -1.89      0.00
  -29    3   14      0.90      0.00
  -27    3   14      1.04      0.00
  -25    3   14      2.65      0.00
  -23    3   14      6.63      0.00
  -21    3   14     10.67      0.00
  -19    3   14      2.86      0.00
  -17    3   14    -12.41      0.00
  -15    3   14    -11.60      0.00
  -13    3   14     -0.56      0.00
  -11    3   14      2.13      0.00
   -9    3   14     -2.41      0.00
   -7    3   14     -3.75      0.00
   -5    3   14     -1.98      0.00
   -3    3   14      1.74      0.00
   -1    3   14     -0.41      0.00
    1    3   14     -3.50      0.00
    3    3   14     -1.27      0.00
    5    3   14      1.46      0.00
    7    3   14      0.58      0.00
    9    3   14     -0.28      0.00
   11    3   14     -0.60      0.00
   13    3   14     -1.44      0.00
   15    3   14     -0.67      0.00
  -42    4   14      0.42      0.00
  -40    4   14     -1.06      0.00
  -38    4   14     -0.79      0.00
  -36    4   14     -3.40      0.00
  -34    4   14     -1.48      0.00
  -32    4   14     -3.22      0.00
  -30    4   14     -2.14      0.00
  -28    4   14     -3.18      0.00
  -26    4   14      0.36      0.00
  -24    4   14     -0.18      0.00
  -22    4   14      1.00      0.00
  -20    4   14      6.49      0.00
  -18    4   14      8.48      0.00
  -16    4   14      4.34      0.00
  -14    4   14     -3.80      0.00
  -12    4   14      0.17      0.00
  -10    4   14      2.89      0.00
   -8    4   14     -2.96      0.00
   -6    4   14     -5.63      0.00
   -4    4   14     -0.18      0.00
   -2    4   14      3.60      0.00
    0    4   14      2.74      0.00
    2    4   14     -2.16      0.00
    4    4   14      0.92      0.00
    6    4   14      1.85      0.00
    8    4   14     -0.36      0.00
   10    4   14      1.58      0.00
   12    4   14      1.38      0.00
   14    4   14     -0.26      0.00
  -41    5   14     -3.42      0.00
  -39    5   14     -4.30      0.00
  -37    5   14     -0.39      0.00
  -35    5   14      2.28      0.00
  -33    5   14     -1.63      0.00
  -31    5   14     -0.71      0.00
  -29    5   14     -4.20      0.00
  -27    5   14     -2.50      0.00
  -25    5   14      0.60      0.00
  -23    5   14     -3.08      0.00
  -21    5   14     -2.04      0.00
  -19    5   14      4.54      0.00
  -17    5   14     12.39      0.00
  -15    5   14     11.12      0.00
  -13    5   14     -0.15      0.00
  -11    5   14     -3.07      0.00
   -9    5   14      0.84      0.00
   -7    5   14     -3.00      0.00
   -5    5   14     -2.88      0.00
   -3    5   14     -1.64      0.00
   -1    5   14     -0.51      0.00
    1    5   14      0.45      0.00
    3    5   14      1.62      0.00
    5    5   14      3.88      0.00
    7    5   14      2.58      0.00
    9    5   14      0.39      0.00
   11    5   14      0.63      0.00
   13    5   14      1.97      0.00
  -40    6   14     -2.21      0.00
  -38    6   14     -4.20      0.00
  -36    6   14      0.84      0.00
  -34    6   14      0.10      0.00
  -32    6   14      0.69      0.00
  -30    6   14     -2.99      0.00
  -28    6   14     -0.88      0.00
  -26    6   14     -2.60      0.00
  -24    6   14     -2.27      0.00
  -22    6   14      1.61      0.00
  -20    6   14      2.97      0.00
  -18    6   14      7.08      0.00
  -16    6   14      9.64      0.00
  -14    6   14      8.61      0.00
  -12    6   14      0.42      0.00
  -10    6   14     -0.80      0.00
   -8    6   14      1.76      0.00
   -6    6   14      1.51      0.00
   -4    6   14     -3.28      0.00
   -2    6   14     -6.75      0.00
    0    6   14     -2.31      0.00
    2    6   14      1.54      0.00
    4    6   14     -1.36      0.00
    6    6   14      1.10      0.00
    8    6   14      1.72      0.00
   10    6   14     -1.42      0.00
   12    6   14      0.12      0.00
  -37    7   14      0.91      0.00
  -35    7   14      1.25      0.00
  -33    7   14      5.77      0.00
  -31    7   14     -1.67      0.00
  -29    7   14      0.13      0.00
  -27    7   14      5.84      0.00
  -25    7   14     -0.46      0.00
  -23    7   14      2.79      0.00
  -21    7   14      7.40      0.00
  -19    7   14      4.52      0.00
  -17    7   14     -0.04      0.00
  -15    7   14      2.21      0.00
  -13    7   14      8.59      0.00
  -11    7   14      4.81      0.00
   -9    7   14      0.13      0.00
   -7    7   14      3.95      0.00
   -5    7   14      1.40      0.00
   -3    7   14     -3.03      0.00
   -1    7   14     -6.74      0.00
    1    7   14     -5.76      0.00
    3    7   14     -2.70      0.00
    5    7   14     -4.80      0.00
    7    7   14     -3.08      0.00
    9    7   14     -2.24      0.00
   11    7   14     -1.00      0.00
  -36    8   14     -1.85      0.00
  -34    8   14      1.64      0.00
  -32    8   14     -3.26      0.00
  -30    8   14     -1.20      0.00
  -28    8   14      0.24      0.00
  -26    8   14     -0.25      0.00
  -24    8   14     -0.63      0.00
  -22    8   14     -1.59      0.00
  -20    8   14      1.74      0.00
  -18    8   14      3.03      0.00
  -16    8   14     -0.16      0.00
  -14    8   14     -2.24      0.00
  -12    8   14      3.67      0.00
  -10    8   14      5.00      0.00
   -8    8   14      3.34      0.00
   -6    8   14      1.97      0.00
   -4    8   14      0.23      0.00
   -2    8   14     -1.69      0.00
    0    8   14     -3.80      0.00
    2    8   14     -1.80      0.00
    4    8   14      0.02      0.00
    6    8   14     -3.56      0.00
    8    8   14     -2.80      0.00
  -33    9   14     -3.41      0.00
  -31    9   14     -3.94      0.00
  -29    9   14      3.71      0.00
  -27    9   14     -2.06      0.00
  -25    9   14     -3.57      0.00
  -23    9   14     -0.18      0.00
  -21    9   14      2.17      0.00
  -19    9   14     -2.96      0.00
  -17    9   14     -3.41      0.00
  -15    9   14      0.84      0.00
  -13    9   14      0.13      0.00
  -11    9   14      2.66      0.00
   -9    9   14      1.46      0.00
   -7    9   14     -0.52      0.00
   -5    9   14      1.60      0.00
   -3    9   14      1.08      0.00
   -1    9   14      3.97      0.00
    1    9   14      5.57      0.00
    3    9   14      2.22      0.00
    5    9   14      2.97      0.00
  -30   10   14     -0.17      0.00
  -28   10   14      0.05      0.00
  -26   10   14     -2.25      0.00
  -24   10   14     -0.03      0.00
  -22   10   14      6.93      0.00
  -20   10   14      4.61      0.00
  -18   10   14     -0.43      0.00
  -16   10   14      2.99      0.00
  -14   10   14      2.81      0.00
  -12   10   14     -1.03      0.00
  -10   10   14     -0.29      0.00
   -8   10   14     -0.83      0.00
   -6   10   14      1.01      0.00
   -4   10   14      1.19      0.00
   -2   10   14     -0.52      0.00
    0   10   14      1.68      0.00
    2   10   14      1.44      0.00
  -25   11   14     -2.81      0.00
  -23   11   14      2.83      0.00
  -21   11   14      4.60      0.00
  -19   11   14      4.46      0.00
  -17   11   14      0.53      0.00
  -15   11   14     -3.20      0.00
  -13   11   14      0.44      0.00
  -11   11   14     -1.56      0.00
   -9   11   14     -2.26      0.00
   -7   11   14      1.31      0.00
   -5   11   14      2.38      0.00
   -3   11   14     -1.30      0.00
  -16   12   14     -3.21      0.00
  -14   12   14     -0.89      0.00
  -12   12   14      0.40      0.00
  -43    1   15     -1.32      0.00
  -41    1   15      0.43      0.00
  -39    1   15      1.22      0.00
  -37    1   15      0.37      0.00
  -35    1   15      4.23      0.00
  -33    1   15     -0.80      0.00
  -31    1   15     -3.69      0.00
  -29    1   15     -3.40      0.00
  -27    1   15      2.07      0.00
  -25    1   15     -6.75      0.00
  -23    1   15    -20.30      0.00
  -21    1   15    -12.59      0.00
  -19    1   15      7.62      0.00
  -17    1   15     10.18      0.00
  -15    1   15     -3.67      0.00
  -13    1   15     -2.98      0.00
  -11    1   15      8.38      0.00
   -9    1   15      6.00      0.00
   -7    1   15     -3.10      0.00
   -5    1   15     -1.65      0.00
   -3    1   15      0.77      0.00
   -1    1   15      3.97      0.00
    1    1   15      4.45      0.00
    3    1   15      5.78      0.00
    5    1   15      1.49      0.00
    7    1   15      0.27      0.00
    9    1   15      4.10      0.00
   11    1   15      1.95      0.00
   13    1   15     -0.26      0.00
   15    1   15     -0.64      0.00
  -44    2   15      1.21      0.00
  -42    2   15      1.73      0.00
  -40    2   15      1.21      0.00
  -38    2   15      0.74      0.00
  -36    2   15      3.72      0.00
  -34    2   15      3.56      0.00
  -32    2   15      1.78      0.00
  -30    2   15      0.21      0.00
  -28    2   15     -0.74      0.00
  -26    2   15     -2.70      0.00
  -24    2   15     -8.83      0.00
  -22    2   15    -15.22      0.00
  -20    2   15     -6.42      0.00
  -18    2   15      3.97      0.00
  -16    2   15     -0.08      0.00
  -14    2   15     -5.09      0.00
  -12    2   15     -3.08      0.00
  -10    2   15      1.71      0.00
   -8    2   15      3.10      0.00
   -6    2   15     -1.52      0.00
   -4    2   15     -3.69      0.00
   -2    2   15      4.08      0.00
    0    2   15      5.44      0.00
    2    2   15      1.07      0.00
    4    2   15      1.99      0.00
    6    2   15      5.16      0.00
    8    2   15      4.95      0.00
   10    2   15      3.17      0.00
   12    2   15     -0.25      0.00
   14    2   15     -1.40      0.00
  -43    3   15      0.34      0.00
  -41    3   15     -1.47      0.00
  -39    3   15      0.91      0.00
  -37    3   15      5.54      0.00
  -35    3   15      0.72      0.00
  -33    3   15      0.90      0.00
  -31    3   15      2.59      0.00
  -29    3   15      5.79      0.00
  -27    3   15      1.96      0.00
  -25    3   15      3.09      0.00
  -23    3   15      2.70      0.00
  -21    3   15     -7.18      0.00
  -19    3   15    -17.30      0.00
  -17    3   15    -12.43      0.00
  -15    3   15      0.57      0.00
  -13    3   15     -2.44      0.00
  -11    3   15     -6.45      0.00
   -9    3   15      0.65      0.00
   -7    3   15      4.16      0.00
   -5    3   15     -1.47      0.00
   -3    3   15     -3.55      0.00
   -1    3   15     -1.32      0.00
    1    3   15      1.30      0.00
    3    3   15     -1.08      0.00
    5    3   15      1.60      0.00
    7    3   15      2.79      0.00
    9    3   15      0.51      0.00
   11    3   15     -0.06      0.00
   13    3   15     -0.04      0.00
  -42    4   15     -0.92      0.00
  -40    4   15     -2.18      0.00
  -38    4   15     -0.42      0.00
  -36    4   15     -1.99      0.00
  -34    4   15     -1.84      0.00
  -32    4   15     -1.29      0.00
  -30    4   15      1.62      0.00
  -28    4   15      1.76      0.00
  -26    4   15      2.99      0.00
  -24    4   15      5.34      0.00
  -22    4   15      3.52      0.00
  -20    4   15     -6.77      0.00
  -18    4   15    -15.72      0.00
  -16    4   15    -10.05      0.00
  -14    4   15      1.41      0.00
  -12    4   15      1.86      0.00
  -10    4   15     -1.51      0.00
   -8    4   15     -0.01      0.00
   -6    4   15     -1.41      0.00
   -4    4   15     -0.45      0.00
   -2    4   15     -1.40      0.00
    0    4   15     -2.67      0.00
    2    4   15     -3.42      0.00
    4    4   15     -0.50      0.00
    6    4   15      1.67      0.00
    8    4   15      0.34      0.00
   10    4   15     -1.87      0.00
   12    4   15     -2.26      0.00
  -41    5   15     -1.48      0.00
  -39    5   15      1.03      0.00
  -37    5   15      0.06      0.00
  -35    5   15      0.06      0.00
  -33    5   15     -3.76      0.00
  -31    5   15     -1.99      0.00
  -29    5   15     -1.85      0.00
  -27    5   15      2.19      0.00
  -25    5   15      0.24      0.00
  -23    5   15     -0.44      0.00
  -21    5   15      0.12      0.00
  -19    5   15     -4.41      0.00
  -17    5   15     -7.20      0.00
  -15    5   15     -5.02      0.00
  -13    5   15      0.81      0.00
  -11    5   15     -0.32      0.00
   -9    5   15     -2.38      0.00
   -7    5   15     -1.71      0.00
   -5    5   15      2.29      0.00
   -3    5   15      4.78      0.00
   -1    5   15     -0.90      0.00
    1    5   15     -4.86      0.00
    3    5   15      0.01      0.00
    5    5   15     -0.76      0.00
    7    5   15     -0.54      0.00
    9    5   15      1.18      0.00
   11    5   15      0.39      0.00
  -40    6   15     -2.31      0.00
  -38    6   15      2.46      0.00
  -36    6   15      4.35      0.00
  -34    6   15     -0.98      0.00
  -32    6   15     -1.16      0.00
  -30    6   15     -5.63      0.00
  -28    6   15     -4.68      0.00
  -26    6   15     -0.95      0.00
  -24    6   15     -7.41      0.00
  -22    6   15     -7.57      0.00
  -20    6   15      0.46      0.00
  -18    6   15      4.63      0.00
  -16    6   15      0.37      0.00
  -14    6   15     -7.37      0.00
  -12    6   15     -4.43      0.00
  -10    6   15     -0.70      0.00
   -8    6   15     -5.58      0.00
   -6    6   15     -3.37      0.00
   -4    6   15     -1.01      0.00
   -2    6   15     -0.07      0.00
    0    6   15     -2.33      0.00
    2    6   15      0.34      0.00
    4    6   15      3.58      0.00
    6    6   15      1.80      0.00
    8    6   15      0.91      0.00
   10    6   15     -0.12      0.00
  -39    7   15      0.09      0.00
  -37    7   15      6.15      0.00
  -35    7   15      4.09      0.00
  -33    7   15      4.12      0.00
  -31    7   15     -1.71      0.00
  -29    7   15     -2.02      0.00
  -27    7   15     -3.03      0.00
  -25    7   15     -1.88      0.00
  -23    7   15     -1.30      0.00
  -21    7   15     -2.04      0.00
  -19    7   15      0.36      0.00
  -17    7   15      3.40      0.00
  -15    7   15      1.28      0.00
  -13    7   15     -6.65      0.00
  -11    7   15     -7.10      0.00
   -9    7   15     -3.73      0.00
   -7    7   15     -2.14      0.00
   -5    7   15     -4.22      0.00
   -3    7   15     -5.30      0.00
   -1    7   15     -1.68      0.00
    1    7   15     -1.45      0.00
    3    7   15     -2.23      0.00
    5    7   15      3.02      0.00
    7    7   15      1.94      0.00
    9    7   15     -1.14      0.00
  -36    8   15      5.10      0.00
  -34    8   15      9.50      0.00
  -32    8   15      2.39      0.00
  -30    8   15     -1.00      0.00
  -28    8   15      5.31      0.00
  -26    8   15      1.35      0.00
  -24    8   15      0.06      0.00
  -22    8   15      1.45      0.00
  -20    8   15      2.84      0.00
  -18    8   15      2.48      0.00
  -16    8   15      2.74      0.00
  -14    8   15      2.97      0.00
  -12    8   15     -2.61      0.00
  -10    8   15     -2.82      0.00
   -8    8   15      0.36      0.00
   -6    8   15     -1.77      0.00
   -4    8   15     -3.00      0.00
   -2    8   15     -8.72      0.00
    0    8   15     -7.13      0.00
    2    8   15     -2.89      0.00
    4    8   15     -3.01      0.00
    6    8   15      0.09      0.00
  -33    9   15      0.12      0.00
  -31    9   15      0.27      0.00
  -29    9   15     -0.24      0.00
  -27    9   15      0.64      0.00
  -25    9   15     -2.77      0.00
  -23    9   15     -4.81      0.00
  -21    9   15      0.19      0.00
  -19    9   15      4.04      0.00
  -17    9   15      0.52      0.00
  -15    9   15     -0.26      0.00
  -13    9   15      2.91      0.00
  -11    9   15      2.50      0.00
   -9    9   15      3.02      0.00
   -7    9   15      3.47      0.00
   -5    9   15      2.50      0.00
   -3    9   15     -0.58      0.00
   -1    9   15     -3.21      0.00
    1    9   15     -1.05      0.00
    3    9   15     -0.18      0.00
  -30   10   15      3.18      0.00
  -28   10   15     -1.09      0.00
  -26   10   15     -3.18      0.00
  -24   10   15     -4.31      0.00
  -22   10   15     -3.67      0.00
  -20   10   15     -4.88      0.00
  -18   10   15      0.32      0.00
  -16   10   15      4.05      0.00
  -14   10   15      1.65      0.00
  -12   10   15      2.71      0.00
  -10   10   15      0.08      0.00
   -8   10   15     -0.15      0.00
   -6   10   15      3.54      0.00
   -4   10   15      2.99      0.00
   -2   10   15      1.74      0.00
    0   10   15      1.00      0.00
  -25   11   15      0.08      0.00
  -23   11   15      1.85      0.00
  -21   11   15      0.22      0.00
  -19   11   15      1.26      0.00
  -17   11   15      4.93      0.00
  -15   11   15     -0.88      0.00
  -13   11   15     -2.92      0.00
  -11   11   15     -0.39      0.00
   -9   11   15     -0.99      0.00
   -7   11   15      2.83      0.00
   -5   11   15      2.69      0.00
  -44    0   16      0.73      0.00
  -42    0   16     -2.11      0.00
  -40    0   16     -2.14      0.00
  -38    0   16     -1.59      0.00
  -36    0   16     -2.36      0.00
  -34    0   16      5.08      0.00
  -32    0   16      4.70      0.00
  -30    0   16      1.55      0.00
  -28    0   16     -1.24      0.00
  -26    0   16     12.75      0.00
  -24    0   16     23.71      0.00
  -22    0   16     10.55      0.00
  -20    0   16     -6.44      0.00
  -18    0   16     -3.82      0.00
  -16    0   16      7.28      0.00
  -14    0   16      0.36      0.00
  -12    0   16    -10.90      0.00
  -10    0   16     -5.01      0.00
   -8    0   16      4.01      0.00
   -6    0   16      1.16      0.00
   -4    0   16     -1.82      0.00
   -2    0   16     -4.19      0.00
    0    0   16     -4.42      0.00
    2    0   16     -3.65      0.00
    4    0   16      1.65      0.00
    6    0   16      1.49      0.00
    8    0   16     -2.12      0.00
   10    0   16      0.21      0.00
   12    0   16      1.37      0.00
  -45    1   16     -0.60      0.00
  -43    1   16     -0.83      0.00
  -41    1   16     -1.13      0.00
  -39    1   16     -1.15      0.00
  -37    1   16     -1.64      0.00
  -35    1   16     -0.94      0.00
  -33    1   16      0.23      0.00
  -31    1   16      1.42      0.00
  -29    1   16      1.04      0.00
  -27    1   16      1.91      0.00
  -25    1   16      8.22      0.00
  -23    1   16     11.97      0.00
  -21    1   16      4.25      0.00
  -19    1   16      0.19      0.00
  -17    1   16      4.30      0.00
  -15    1   16      3.63      0.00
  -13    1   16     -1.14      0.00
  -11    1   16     -3.27      0.00
   -9    1   16     -1.24      0.00
   -7    1   16      2.79      0.00
   -5    1   16      1.22      0.00
   -3    1   16     -4.41      0.00
   -1    1   16     -1.96      0.00
    1    1   16      0.69      0.00
    3    1   16     -1.61      0.00
    5    1   16     -2.37      0.00
    7    1   16     -0.91      0.00
    9    1   16      0.86      0.00
   11    1   16      3.24      0.00
   13    1   16      1.73      0.00
  -44    2   16     -0.31      0.00
  -42    2   16      0.70      0.00
  -40    2   16     -2.59      0.00
  -38    2   16     -4.15      0.00
  -36    2   16      1.65      0.00
  -34    2   16     -1.75      0.00
  -32    2   16     -4.37      0.00
  -30    2   16     -5.46      0.00
  -28    2   16     -1.51      0.00
  -26    2   16     -6.30      0.00
  -24    2   16     -7.90      0.00
  -22    2   16      4.66      0.00
  -20    2   16     16.21      0.00
  -18    2   16     10.05      0.00
  -16    2   16     -1.73      0.00
  -14    2   16      2.05      0.00
  -12    2   16      5.73      0.00
  -10    2   16     -0.50      0.00
   -8    2   16     -3.65      0.00
   -6    2   16      0.11      0.00
   -4    2   16      0.94      0.00
   -2    2   16      0.55      0.00
    0    2   16      0.40      0.00
    2    2   16      1.01      0.00
    4    2   16     -1.89      0.00
    6    2   16     -0.87      0.00
    8    2   16      1.44      0.00
   10    2   16      1.62      0.00
   12    2   16      0.70      0.00
  -43    3   16      0.86      0.00
  -41    3   16      0.58      0.00
  -39    3   16     -1.14      0.00
  -37    3   16      1.20      0.00
  -35    3   16      1.10      0.00
  -33    3   16     -1.07      0.00
  -31    3   16     -3.61      0.00
  -29    3   16     -3.82      0.00
  -27    3   16     -4.06      0.00
  -25    3   16     -6.71      0.00
  -23    3   16     -7.39      0.00
  -21    3   16      3.42      0.00
  -19    3   16      9.79      0.00
  -17    3   16      3.31      0.00
  -15    3   16     -2.16      0.00
  -13    3   16     -0.61      0.00
  -11    3   16      2.27      0.00
   -9    3   16      3.57      0.00
   -7    3   16      1.46      0.00
   -5    3   16     -1.50      0.00
   -3    3   16      2.62      0.00
   -1    3   16      2.01      0.00
    1    3   16     -0.77      0.00
    3    3   16     -2.75      0.00
    5    3   16     -0.59      0.00
    7    3   16      2.31      0.00
    9    3   16      2.63      0.00
   11    3   16      0.39      0.00
  -42    4   16     -0.18      0.00
  -40    4   16      0.31      0.00
  -38    4   16      2.96      0.00
  -36    4   16      0.84      0.00
  -34    4   16      2.75      0.00
  -32    4   16      2.19      0.00
  -30    4   16      2.81      0.00
  -28    4   16     -0.47      0.00
  -26    4   16      0.94      0.00
  -24    4   16     -1.78      0.00
  -22    4   16     -6.83      0.00
  -20    4   16     -6.66      0.00
  -18    4   16     -0.91      0.00
  -16    4   16      2.83      0.00
  -14    4   16     -0.60      0.00
  -12    4   16     -0.43      0.00
  -10    4   16      2.21      0.00
   -8    4   16      2.52      0.00
   -6    4   16     -1.85      0.00
   -4    4   16     -4.49      0.00
   -2    4   16      1.02      0.00
    0    4   16      2.67      0.00
    2    4   16     -1.86      0.00
    4    4   16      0.23      0.00
    6    4   16      0.59      0.00
    8    4   16      0.06      0.00
   10    4   16     -0.56      0.00
  -41    5   16     -0.09      0.00
  -39    5   16     -0.18      0.00
  -37    5   16     -1.38      0.00
  -35    5   16      2.40      0.00
  -33    5   16      3.81      0.00
  -31    5   16      4.97      0.00
  -29    5   16      3.57      0.00
  -27    5   16      4.31      0.00
  -25    5   16      6.09      0.00
  -23    5   16      0.23      0.00
  -21    5   16     -9.99      0.00
  -19    5   16    -13.02      0.00
  -17    5   16     -6.19      0.00
  -15    5   16      2.88      0.00
  -13    5   16      0.63      0.00
  -11    5   16     -1.73      0.00
   -9    5   16      1.99      0.00
   -7    5   16      0.68      0.00
   -5    5   16      0.83      0.00
   -3    5   16      0.80      0.00
   -1    5   16      1.32      0.00
    1    5   16     -3.34      0.00
    3    5   16     -0.79      0.00
    5    5   16      1.75      0.00
    7    5   16     -0.13      0.00
    9    5   16     -0.61      0.00
  -40    6   16      2.14      0.00
  -38    6   16     -0.40      0.00
  -36    6   16      0.62      0.00
  -34    6   16     -0.05      0.00
  -32    6   16      3.43      0.00
  -30    6   16      3.82      0.00
  -28    6   16      5.62      0.00
  -26    6   16      0.99      0.00
  -24    6   16     -1.02      0.00
  -22    6   16     -2.22      0.00
  -20    6   16     -6.52      0.00
  -18    6   16     -9.12      0.00
  -16    6   16     -4.28      0.00
  -14    6   16      2.15      0.00
  -12    6   16      0.55      0.00
  -10    6   16     -2.27      0.00
   -8    6   16     -0.30      0.00
   -6    6   16      5.59      0.00
   -4    6   16      5.94      0.00
   -2    6   16     -1.13      0.00
    0    6   16     -0.52      0.00
    2    6   16      2.34      0.00
    4    6   16     -1.73      0.00
    6    6   16      0.67      0.00
    8    6   16      2.18      0.00
  -39    7   16     -1.00      0.00
  -37    7   16     -0.08      0.00
  -35    7   16     -3.44      0.00
  -33    7   16      0.41      0.00
  -31    7   16     -1.41      0.00
  -29    7   16     -2.34      0.00
  -27    7   16      1.17      0.00
  -25    7   16     -4.46      0.00
  -23    7   16     -4.15      0.00
  -21    7   16      1.75      0.00
  -19    7   16      0.33      0.00
  -17    7   16     -5.25      0.00
  -15    7   16     -7.11      0.00
  -13    7   16      0.22      0.00
  -11    7   16      0.97      0.00
   -9    7   16     -3.02      0.00
   -7    7   16      1.47      0.00
   -5    7   16      4.13      0.00
   -3    7   16      5.79      0.00
   -1    7   16      1.53      0.00
    1    7   16      3.65      0.00
    3    7   16      4.32      0.00
    5    7   16      2.09      0.00
    7    7   16      1.89      0.00
  -36    8   16     -0.87      0.00
  -34    8   16      1.77      0.00
  -32    8   16     -0.19      0.00
  -30    8   16     -0.05      0.00
  -28    8   16      0.06      0.00
  -26    8   16      2.38      0.00
  -24    8   16      0.43      0.00
  -22    8   16     -1.31      0.00
  -20    8   16     -0.54      0.00
  -18    8   16      2.12      0.00
  -16    8   16     -0.56      0.00
  -14    8   16     -4.88      0.00
  -12    8   16     -4.00      0.00
  -10    8   16     -2.16      0.00
   -8    8   16     -0.67      0.00
   -6    8   16      0.35      0.00
   -4    8   16      1.10      0.00
   -2    8   16      2.01      0.00
    0    8   16      0.67      0.00
    2    8   16      1.55      0.00
    4    8   16      4.81      0.00
  -33    9   16      0.40      0.00
  -31    9   16     -1.68      0.00
  -29    9   16      6.02      0.00
  -27    9   16      4.36      0.00
  -25    9   16      2.07      0.00
  -23    9   16      2.82      0.00
  -21    9   16      5.25      0.00
  -19    9   16      2.23      0.00
  -17    9   16     -1.15      0.00
  -15    9   16     -1.26      0.00
  -13    9   16     -2.49      0.00
  -11    9   16      0.12      0.00
   -9    9   16     -0.39      0.00
   -7    9   16     -2.09      0.00
   -5    9   16     -1.04      0.00
   -3    9   16     -5.85      0.00
   -1    9   16     -3.64      0.00
    1    9   16     -1.34      0.00
  -30   10   16      0.30      0.00
  -28   10   16      2.01      0.00
  -26   10   16     -2.52      0.00
  -24   10   16     -3.69      0.00
  -22   10   16     -1.17      0.00
  -20   10   16     -0.97      0.00
  -18   10   16     -3.09      0.00
  -16   10   16      1.56      0.00
  -14   10   16      2.29      0.00
  -12   10   16      0.14      0.00
  -10   10   16      0.66      0.00
   -8   10   16     -0.18      0.00
   -6   10   16     -0.06      0.00
   -4   10   16     -0.17      0.00
   -2   10   16     -1.42      0.00
  -25   11   16     -5.42      0.00
  -23   11   16     -4.59      0.00
  -21   11   16     -3.35      0.00
  -19   11   16      1.12      0.00
  -17   11   16      2.30      0.00
  -15   11   16      0.83      0.00
  -13   11   16      0.90      0.00
  -11   11   16     -1.84      0.00
   -9   11   16     -2.29      0.00
   -7   11   16     -0.44      0.00
  -45    1   17     -0.33      0.00
  -43    1   17     -1.31      0.00
  -41    1   17     -0.06      0.00
  -39    1   17     -1.38      0.00
  -37    1   17     -2.99      0.00
  -35    1   17      3.48      0.00
  -33    1   17      2.32      0.00
  -31    1   17      1.00      0.00
  -29    1   17      0.49      0.00
  -27    1   17     11.08      0.00
  -25    1   17     13.11      0.00
  -23    1   17     -0.82      0.00
  -21    1   17     -9.55      0.00
  -19    1   17     -2.01      0.00
  -17    1   17      5.97      0.00
  -15    1   17     -1.70      0.00
  -13    1   17     -6.35      0.00
  -11    1   17      0.41      0.00
   -9    1   17      4.28      0.00
   -7    1   17      0.59      0.00
   -5    1   17     -1.40      0.00
   -3    1   17     -3.13      0.00
   -1    1   17     -3.93      0.00
    1    1   17     -3.23      0.00
    3    1   17     -0.61      0.00
    5    1   17     -2.01      0.00
    7    1   17     -4.02      0.00
    9    1   17     -2.85      0.00
   11    1   17     -1.27      0.00
  -44    2   17      0.62      0.00
  -42    2   17     -0.57      0.00
  -40    2   17     -1.50      0.00
  -38    2   17     -2.69      0.00
  -36    2   17     -1.51      0.00
  -34    2   17      1.36      0.00
  -32    2   17      3.07      0.00
  -30    2   17      1.12      0.00
  -28    2   17      1.59      0.00
  -26    2   17      8.12      0.00
  -24    2   17     10.21      0.00
  -22    2   17      0.64      0.00
  -20    2   17     -0.93      0.00
  -18    2   17      4.79      0.00
  -16    2   17      3.54      0.00
  -14    2   17     -0.50      0.00
  -12    2   17     -2.25      0.00
  -10    2   17     -1.22      0.00
   -8    2   17      3.72      0.00
   -6    2   17      2.51      0.00
   -4    2   17     -3.81      0.00
   -2    2   17      0.03      0.00
    0    2   17      1.09      0.00
    2    2   17     -2.46      0.00
    4    2   17     -4.74      0.00
    6    2   17     -4.08      0.00
    8    2   17     -1.64      0.00
   10    2   17      1.44      0.00
  -43    3   17      1.52      0.00
  -41    3   17     -3.29      0.00
  -39    3   17     -5.38      0.00
  -37    3   17      0.79      0.00
  -35    3   17     -1.29      0.00
  -33    3   17     -3.73      0.00
  -31    3   17     -5.13      0.00
  -29    3   17     -1.69      0.00
  -27    3   17     -3.78      0.00
  -25    3   17     -0.06      0.00
  -23    3   17     10.75      0.00
  -21    3   17     14.47      0.00
  -19    3   17      4.93      0.00
  -17    3   17     -1.65      0.00
  -15    3   17      2.41      0.00
  -13    3   17      1.65      0.00
  -11    3   17     -2.01      0.00
   -9    3   17     -1.14      0.00
   -7    3   17      3.75      0.00
   -5    3   17      4.88      0.00
   -3    3   17      0.48      0.00
   -1    3   17      0.35      0.00
    1    3   17      1.13      0.00
    3    3   17     -2.14      0.00
    5    3   17     -1.67      0.00
    7    3   17     -0.28      0.00
    9    3   17      1.58      0.00
  -42    4   17      1.54      0.00
  -40    4   17     -2.13      0.00
  -38    4   17     -0.26      0.00
  -36    4   17     -0.54      0.00
  -34    4   17     -2.00      0.00
  -32    4   17     -3.45      0.00
  -30    4   17     -3.96      0.00
  -28    4   17     -5.25      0.00
  -26    4   17     -4.72      0.00
  -24    4   17      1.09      0.00
  -22    4   17     12.07      0.00
  -20    4   17     12.98      0.00
  -18    4   17      4.18      0.00
  -16    4   17     -1.79      0.00
  -14    4   17     -0.33      0.00
  -12    4   17      0.44      0.00
  -10    4   17      1.19      0.00
   -8    4   17      1.94      0.00
   -6    4   17      0.55      0.00
   -4    4   17      2.23      0.00
   -2    4   17      2.28      0.00
    0    4   17      3.14      0.00
    2    4   17     -3.47      0.00
    4    4   17     -1.79      0.00
    6    4   17      3.43      0.00
    8    4   17      2.69      0.00
  -41    5   17     -2.19      0.00
  -39    5   17     -0.60      0.00
  -37    5   17     -0.21      0.00
  -35    5   17      2.12      0.00
  -33    5   17      0.31      0.00
  -31    5   17     -0.79      0.00
  -29    5   17     -2.28      0.00
  -27    5   17      1.18      0.00
  -25    5   17      0.51      0.00
  -23    5   17      1.38      0.00
  -21    5   17      5.31      0.00
  -19    5   17      7.47      0.00
  -17    5   17      3.74      0.00
  -15    5   17      0.05      0.00
  -13    5   17      0.16      0.00
  -11    5   17      0.44      0.00
   -9    5   17     -0.71      0.00
   -7    5   17     -4.30      0.00
   -5    5   17     -3.16      0.00
   -3    5   17      4.85      0.00
   -1    5   17      2.84      0.00
    1    5   17     -0.60      0.00
    3    5   17      2.03      0.00
    5    5   17      0.27      0.00
    7    5   17      0.45      0.00
  -40    6   17     -3.13      0.00
  -38    6   17     -4.54      0.00
  -36    6   17      1.08      0.00
  -34    6   17      1.86      0.00
  -32    6   17      3.02      0.00
  -30    6   17      2.63      0.00
  -28    6   17      4.08      0.00
  -26    6   17      7.37      0.00
  -24    6   17      0.99      0.00
  -22    6   17     -6.39      0.00
  -20    6   17     -2.88      0.00
  -18    6   17      4.25      0.00
  -16    6   17      8.01      0.00
  -14    6   17      0.72      0.00
  -12    6   17     -0.67      0.00
  -10    6   17      3.30      0.00
   -8    6   17      0.50      0.00
   -6    6   17     -0.19      0.00
   -4    6   17      1.47      0.00
   -2    6   17      3.33      0.00
    0    6   17     -3.43      0.00
    2    6   17     -0.12      0.00
    4    6   17      0.64      0.00
    6    6   17     -0.28      0.00
  -39    7   17     -4.99      0.00
  -37    7   17     -3.32      0.00
  -35    7   17     -2.88      0.00
  -33    7   17      1.00      0.00
  -31    7   17      3.02      0.00
  -29    7   17      3.40      0.00
  -27    7   17      0.28      0.00
  -25    7   17      1.41      0.00
  -23    7   17      0.33      0.00
  -21    7   17     -2.23      0.00
  -19    7   17     -3.49      0.00
  -17    7   17      3.25      0.00
  -15    7   17      8.21      0.00
  -13    7   17      4.64      0.00
  -11    7   17     -0.55      0.00
   -9    7   17      0.53      0.00
   -7    7   17      4.14      0.00
   -5    7   17      3.28      0.00
   -3    7   17     -0.43      0.00
   -1    7   17      1.63      0.00
    1    7   17      0.62      0.00
    3    7   17     -3.36      0.00
    5    7   17      0.26      0.00
  -36    8   17     -6.75      0.00
  -34    8   17     -1.09      0.00
  -32    8   17     -1.53      0.00
  -30    8   17     -3.87      0.00
  -28    8   17      0.55      0.00
  -26    8   17     -1.46      0.00
  -24    8   17     -2.37      0.00
  -22    8   17     -1.98      0.00
  -20    8   17     -3.11      0.00
  -18    8   17     -1.92      0.00
  -16    8   17      0.27      0.00
  -14    8   17      4.81      0.00
  -12    8   17      1.94      0.00
  -10    8   17     -0.53      0.00
   -8    8   17      1.20      0.00
   -6    8   17      3.04      0.00
   -4    8   17      7.23      0.00
   -2    8   17      1.90      0.00
    0    8   17      2.19      0.00
    2    8   17      0.58      0.00
  -33    9   17      0.21      0.00
  -31    9   17     -0.22      0.00
  -29    9   17     -0.08      0.00
  -27    9   17      3.18      0.00
  -25    9   17      0.50      0.00
  -23    9   17     -1.82      0.00
  -21    9   17     -2.14      0.00
  -19    9   17     -0.12      0.00
  -17    9   17     -2.74      0.00
  -15    9   17     -2.05      0.00
  -13    9   17     -1.15      0.00
  -11    9   17     -2.99      0.00
   -9    9   17     -3.53      0.00
   -7    9   17     -1.32      0.00
   -5    9   17      1.22      0.00
   -3    9   17      2.21      0.00
   -1    9   17      1.19      0.00
  -30   10   17      4.64      0.00
  -28   10   17      5.24      0.00
  -26   10   17      5.36      0.00
  -24   10   17      4.00      0.00
  -22   10   17      1.67      0.00
  -20   10   17     -3.97      0.00
  -18   10   17     -6.24      0.00
  -16   10   17     -3.48      0.00
  -14   10   17     -0.49      0.00
  -12   10   17      2.09      0.00
  -10   10   17     -1.89      0.00
   -8   10   17     -3.61      0.00
   -6   10   17     -0.77      0.00
   -4   10   17     -1.22      0.00
  -23   11   17     -1.11      0.00
  -21   11   17     -4.01      0.00
  -19   11   17     -3.69      0.00
  -17   11   17      3.06      0.00
  -15   11   17      1.96      0.00
  -13   11   17      0.44      0.00
  -11   11   17     -0.34      0.00
  -44    0   18      0.85      0.00
  -42    0   18     -0.08      0.00
  -40    0   18      1.16      0.00
  -38    0   18     -0.71      0.00
  -36    0   18     -5.78      0.00
  -34    0   18     -1.22      0.00
  -32    0   18     -0.43      0.00
  -30    0   18     -2.22      0.00
  -28    0   18    -13.43      0.00
  -26    0   18    -12.16      0.00
  -24    0   18      0.94      0.00
  -22    0   18      4.58      0.00
  -20    0   18     -4.45      0.00
  -18    0   18     -7.60      0.00
  -16    0   18      3.95      0.00
  -14    0   18      6.30      0.00
  -12    0   18     -2.34      0.00
  -10    0   18     -4.64      0.00
   -8    0   18     -0.08      0.00
   -6    0   18      1.76      0.00
   -4    0   18      3.34      0.00
   -2    0   18      2.87      0.00
    0    0   18      0.02      0.00
    2    0   18     -3.11      0.00
    4    0   18     -2.10      0.00
    6    0   18      0.01      0.00
    8    0   18     -0.02      0.00
   10    0   18      0.58      0.00
  -45    1   18     -0.48      0.00
  -43    1   18      0.48      0.00
  -41    1   18     -0.03      0.00
  -39    1   18     -0.06      0.00
  -37    1   18     -0.42      0.00
  -35    1   18     -2.53      0.00
  -33    1   18     -2.26      0.00
  -31    1   18      0.93      0.00
  -29    1   18     -1.01      0.00
  -27    1   18     -7.33      0.00
  -25    1   18     -7.52      0.00
  -23    1   18     -1.61      0.00
  -21    1   18     -3.52      0.00
  -19    1   18     -6.57      0.00
  -17    1   18     -1.41      0.00
  -15    1   18      2.65      0.00
  -13    1   18      1.02      0.00
  -11    1   18     -1.97      0.00
   -9    1   18     -3.74      0.00
   -7    1   18     -0.19      0.00
   -5    1   18      2.35      0.00
   -3    1   18     -1.46      0.00
   -1    1   18     -0.45      0.00
    1    1   18      1.43      0.00
    3    1   18      0.01      0.00
    5    1   18     -2.10      0.00
    7    1   18     -3.32      0.00
    9    1   18     -2.93      0.00
  -44    2   18      0.38      0.00
  -42    2   18      3.21      0.00
  -40    2   18      1.69      0.00
  -38    2   18     -1.59      0.00
  -36    2   18      3.72      0.00
  -34    2   18      4.73      0.00
  -32    2   18      4.94      0.00
  -30    2   18      2.88      0.00
  -28    2   18      7.29      0.00
  -26    2   18      2.31      0.00
  -24    2   18    -10.42      0.00
  -22    2   18    -13.07      0.00
  -20    2   18     -3.33      0.00
  -18    2   18      1.22      0.00
  -16    2   18     -3.10      0.00
  -14    2   18     -1.46      0.00
  -12    2   18      1.47      0.00
  -10    2   18      0.89      0.00
   -8    2   18     -1.56      0.00
   -6    2   18     -1.85      0.00
   -4    2   18     -0.13      0.00
   -2    2   18     -0.21      0.00
    0    2   18      0.09      0.00
    2    2   18      1.24      0.00
    4    2   18     -0.38      0.00
    6    2   18     -2.87      0.00
    8    2   18     -3.43      0.00
  -43    3   18      0.54      0.00
  -41    3   18      2.65      0.00
  -39    3   18      1.56      0.00
  -37    3   18      2.33      0.00
  -35    3   18      5.40      0.00
  -33    3   18      5.95      0.00
  -31    3   18      3.79      0.00
  -29    3   18      4.31      0.00
  -27    3   18      5.80      0.00
  -25    3   18      2.36      0.00
  -23    3   18     -7.21      0.00
  -21    3   18     -5.49      0.00
  -19    3   18      0.45      0.00
  -17    3   18      0.27      0.00
  -15    3   18     -0.35      0.00
  -13    3   18     -1.27      0.00
  -11    3   18     -3.41      0.00
   -9    3   18      0.24      0.00
   -7    3   18      0.93      0.00
   -5    3   18     -2.27      0.00
   -3    3   18      1.36      0.00
   -1    3   18      2.20      0.00
    1    3   18      3.78      0.00
    3    3   18     -1.02      0.00
    5    3   18     -3.99      0.00
    7    3   18     -1.45      0.00
    9    3   18      1.49      0.00
  -42    4   18     -0.65      0.00
  -40    4   18     -2.50      0.00
  -38    4   18      0.96      0.00
  -36    4   18     -1.34      0.00
  -34    4   18     -2.65      0.00
  -32    4   18     -2.54      0.00
  -30    4   18     -0.35      0.00
  -28    4   18     -1.91      0.00
  -26    4   18      1.35      0.00
  -24    4   18      5.64      0.00
  -22    4   18      4.42      0.00
  -20    4   18     -1.94      0.00
  -18    4   18     -2.67      0.00
  -16    4   18      0.53      0.00
  -14    4   18      0.98      0.00
  -12    4   18     -0.06      0.00
  -10    4   18     -0.19      0.00
   -8    4   18      3.21      0.00
   -6    4   18      2.57      0.00
   -4    4   18     -3.83      0.00
   -2    4   18     -0.52      0.00
    0    4   18      1.15      0.00
    2    4   18     -1.42      0.00
    4    4   18     -0.73      0.00
    6    4   18     -0.65      0.00
    8    4   18      1.43      0.00
  -41    5   18     -1.22      0.00
  -39    5   18     -0.30      0.00
  -37    5   18     -3.75      0.00
  -35    5   18     -4.91      0.00
  -33    5   18     -5.78      0.00
  -31    5   18     -7.44      0.00
  -29    5   18     -8.80      0.00
  -27    5   18     -4.89      0.00
  -25    5   18      4.32      0.00
  -23    5   18     12.29      0.00
  -21    5   18      8.82      0.00
  -19    5   18      0.65      0.00
  -17    5   18     -3.53      0.00
  -15    5   18      1.67      0.00
  -13    5   18      1.83      0.00
  -11    5   18     -0.89      0.00
   -9    5   18     -0.42      0.00
   -7    5   18     -1.01      0.00
   -5    5   18     -2.36      0.00
   -3    5   18     -1.17      0.00
   -1    5   18      2.81      0.00
    1    5   18     -5.61      0.00
    3    5   18     -1.51      0.00
    5    5   18      1.73      0.00
    7    5   18     -1.27      0.00
  -40    6   18      0.19      0.00
  -38    6   18     -0.87      0.00
  -36    6   18     -1.48      0.00
  -34    6   18     -5.06      0.00
  -32    6   18     -7.70      0.00
  -30    6   18     -6.23      0.00
  -28    6   18     -1.54      0.00
  -26    6   18     -1.20      0.00
  -24    6   18      1.70      0.00
  -22    6   18      6.19      0.00
  -20    6   18      7.28      0.00
  -18    6   18     -0.05      0.00
  -16    6   18     -2.90      0.00
  -14    6   18      1.02      0.00
  -12    6   18      3.47      0.00
  -10    6   18     -1.74      0.00
   -8    6   18     -5.65      0.00
   -6    6   18     -1.86      0.00
   -4    6   18      2.96      0.00
   -2    6   18     -1.91      0.00
    0    6   18     -1.36      0.00
    2    6   18      1.14      0.00
    4    6   18     -2.30      0.00
  -39    7   18     -1.09      0.00
  -37    7   18      2.37      0.00
  -35    7   18     -0.82      0.00
  -33    7   18     -0.78      0.00
  -31    7   18     -1.84      0.00
  -29    7   18     -1.81      0.00
  -27    7   18      1.63      0.00
  -25    7   18     -2.58      0.00
  -23    7   18     -4.34      0.00
  -21    7   18      2.32      0.00
  -19    7   18      4.75      0.00
  -17    7   18      3.22      0.00
  -15    7   18     -3.89      0.00
  -13    7   18     -0.97      0.00
  -11    7   18      2.04      0.00
   -9    7   18     -1.35      0.00
   -7    7   18     -2.40      0.00
   -5    7   18     -1.04      0.00
   -3    7   18      1.51      0.00
   -1    7   18     -4.21      0.00
    1    7   18     -0.26      0.00
    3    7   18     -1.34      0.00
  -36    8   18     -0.68      0.00
  -34    8   18     -0.35      0.00
  -32    8   18      1.15      0.00
  -30    8   18     -0.41      0.00
  -28    8   18     -2.29      0.00
  -26    8   18     -0.11      0.00
  -24    8   18     -1.27      0.00
  -22    8   18     -2.04      0.00
  -20    8   18     -2.48      0.00
  -18    8   18      2.25      0.00
  -16    8   18      2.33      0.00
  -14    8   18      0.46      0.00
  -12    8   18     -1.03      0.00
  -10    8   18      0.02      0.00
   -8    8   18      0.40      0.00
   -6    8   18     -0.15      0.00
   -4    8   18     -1.21      0.00
   -2    8   18     -0.07      0.00
    0    8   18     -1.77      0.00
  -33    9   18     -1.97      0.00
  -31    9   18     -5.22      0.00
  -29    9   18     -2.45      0.00
  -27    9   18     -3.69      0.00
  -25    9   18     -3.92      0.00
  -23    9   18     -2.46      0.00
  -21    9   18      0.53      0.00
  -19    9   18      3.72      0.00
  -17    9   18      1.44      0.00
  -15    9   18      0.43      0.00
  -13    9   18     -1.32      0.00
  -11    9   18      0.92      0.00
   -9    9   18      1.02      0.00
   -7    9   18      1.64      0.00
   -5    9   18      4.87      0.00
   -3    9   18      0.11      0.00
  -28   10   18      1.47      0.00
  -26   10   18     -0.21      0.00
  -24   10   18      0.98      0.00
  -22   10   18      2.38      0.00
  -20   10   18      1.03      0.00
  -18   10   18     -4.11      0.00
  -16   10   18     -0.71      0.00
  -14   10   18      0.26      0.00
  -12   10   18     -0.89      0.00
  -10   10   18     -0.49      0.00
   -8   10   18      0.66      0.00
  -17   11   18     -1.69      0.00
  -45    1   19     -0.28      0.00
  -43    1   19      0.68      0.00
  -41    1   19      2.70      0.00
  -39    1   19      1.06      0.00
  -37    1   19     -2.74      0.00
  -35    1   19     -0.32      0.00
  -33    1   19     -1.44      0.00
  -31    1   19     -2.20      0.00
  -29    1   19     -9.16      0.00
  -27    1   19     -3.53      0.00
  -25    1   19      6.63      0.00
  -23    1   19      5.78      0.00
  -21    1   19     -3.15      0.00
  -19    1   19     -3.47      0.00
  -17    1   19      4.52      0.00
  -15    1   19      2.57      0.00
  -13    1   19     -2.18      0.00
  -11    1   19     -2.14      0.00
   -9    1   19      0.22      0.00
   -7    1   19      1.50      0.00
   -5    1   19      1.81      0.00
   -3    1   19      1.46      0.00
   -1    1   19      0.87      0.00
    1    1   19     -0.05      0.00
    3    1   19      1.32      0.00
    5    1   19      3.94      0.00
    7    1   19      3.50      0.00
  -44    2   19      1.15      0.00
  -42    2   19      0.03      0.00
  -40    2   19      0.24      0.00
  -38    2   19     -0.94      0.00
  -36    2   19     -4.62      0.00
  -34    2   19     -2.77      0.00
  -32    2   19      0.91      0.00
  -30    2   19     -2.58      0.00
  -28    2   19     -7.26      0.00
  -26    2   19     -5.10      0.00
  -24    2   19      1.48      0.00
  -22    2   19     -2.77      0.00
  -20    2   19     -5.08      0.00
  -18    2   19      0.93      0.00
  -16    2   19      2.50      0.00
  -14    2   19      0.88      0.00
  -12    2   19     -0.78      0.00
  -10    2   19     -4.67      0.00
   -8    2   19     -1.73      0.00
   -6    2   19      0.42      0.00
   -4    2   19     -3.87      0.00
   -2    2   19     -0.49      0.00
    0    2   19      2.00      0.00
    2    2   19      3.08      0.00
    4    2   19      1.90      0.00
    6    2   19      0.06      0.00
  -43    3   19      3.60      0.00
  -41    3   19      2.61      0.00
  -39    3   19     -2.05      0.00
  -37    3   19      2.53      0.00
  -35    3   19      4.80      0.00
  -33    3   19      3.39      0.00
  -31    3   19      0.47      0.00
  -29    3   19      2.87      0.00
  -27    3   19     -3.61      0.00
  -25    3   19    -13.09      0.00
  -23    3   19    -11.09      0.00
  -21    3   19     -0.90      0.00
  -19    3   19      0.73      0.00
  -17    3   19     -1.33      0.00
  -15    3   19      0.85      0.00
  -13    3   19      0.68      0.00
  -11    3   19     -1.11      0.00
   -9    3   19     -4.22      0.00
   -7    3   19     -3.70      0.00
   -5    3   19      0.56      0.00
   -3    3   19     -1.61      0.00
   -1    3   19     -0.75      0.00
    1    3   19      1.68      0.00
    3    3   19      0.59      0.00
    5    3   19     -1.51      0.00
    7    3   19     -2.40      0.00
  -42    4   19      4.01      0.00
  -40    4   19      1.92      0.00
  -38    4   19      2.46      0.00
  -36    4   19      4.70      0.00
  -34    4   19      4.91      0.00
  -32    4   19      5.21      0.00
  -30    4   19      5.29      0.00
  -28    4   19      0.42      0.00
  -26    4   19     -6.91      0.00
  -24    4   19    -14.03      0.00
  -22    4   19     -8.26      0.00
  -20    4   19     -0.95      0.00
  -18    4   19      1.05      0.00
  -16    4   19      0.84      0.00
  -14    4   19      0.81      0.00
  -12    4   19     -1.15      0.00
  -10    4   19     -0.24      0.00
   -8    4   19     -0.13      0.00
   -6    4   19     -0.77      0.00
   -4    4   19     -0.87      0.00
   -2    4   19     -0.34      0.00
    0    4   19      5.95      0.00
    2    4   19     -3.03      0.00
    4    4   19     -5.44      0.00
    6    4   19     -0.48      0.00
  -41    5   19     -0.37      0.00
  -39    5   19      1.28      0.00
  -37    5   19      0.43      0.00
  -35    5   19      1.35      0.00
  -33    5   19      2.49      0.00
  -31    5   19      1.13      0.00
  -29    5   19     -1.40      0.00
  -27    5   19     -0.89      0.00
  -25    5   19     -2.12      0.00
  -23    5   19     -5.43      0.00
  -21    5   19     -7.19      0.00
  -19    5   19     -2.38      0.00
  -17    5   19      0.83      0.00
  -15    5   19      1.20      0.00
  -13    5   19      0.83      0.00
  -11    5   19      2.87      0.00
   -9    5   19      4.07      0.00
   -7    5   19      0.33      0.00
   -5    5   19     -4.05      0.00
   -3    5   19      1.00      0.00
   -1    5   19     -0.42      0.00
    1    5   19     -1.92      0.00
    3    5   19     -0.46      0.00
    5    5   19     -1.13      0.00
  -40    6   19      2.69      0.00
  -38    6   19     -1.01      0.00
  -36    6   19     -0.18      0.00
  -34    6   19     -0.96      0.00
  -32    6   19     -2.81      0.00
  -30    6   19     -4.53      0.00
  -28    6   19     -1.68      0.00
  -26    6   19      5.20      0.00
  -24    6   19      6.38      0.00
  -22    6   19     -1.44      0.00
  -20    6   19     -6.33      0.00
  -18    6   19     -6.11      0.00
  -16    6   19      2.81      0.00
  -14    6   19      0.96      0.00
  -12    6   19     -2.38      0.00
  -10    6   19     -0.17      0.00
   -8    6   19     -0.28      0.00
   -6    6   19     -2.99      0.00
   -4    6   19     -0.60      0.00
   -2    6   19      3.37      0.00
    0    6   19     -4.68      0.00
    2    6   19      0.72      0.00
  -39    7   19      1.85      0.00
  -37    7   19      1.37      0.00
  -35    7   19     -1.47      0.00
  -33    7   19     -4.88      0.00
  -31    7   19     -2.27      0.00
  -29    7   19      0.03      0.00
  -27    7   19      0.02      0.00
  -25    7   19      2.37      0.00
  -23    7   19      4.08      0.00
  -21    7   19      2.31      0.00
  -19    7   19     -5.58      0.00
  -17    7   19     -4.89      0.00
  -15    7   19      1.05      0.00
  -13    7   19      3.81      0.00
  -11    7   19     -1.91      0.00
   -9    7   19     -3.40      0.00
   -7    7   19     -0.13      0.00
   -5    7   19      1.62      0.00
   -3    7   19     -1.88      0.00
   -1    7   19      0.70      0.00
    1    7   19      1.48      0.00
  -36    8   19     -0.03      0.00
  -34    8   19      0.86      0.00
  -32    8   19     -1.32      0.00
  -30    8   19     -2.12      0.00
  -28    8   19      1.94      0.00
  -26    8   19      0.92      0.00
  -24    8   19      1.19      0.00
  -22    8   19      2.77      0.00
  -20    8   19     -0.93      0.00
  -18    8   19     -1.26      0.00
  -16    8   19     -4.17      0.00
  -14    8   19      0.11      0.00
  -12    8   19      0.83      0.00
  -10    8   19     -0.76      0.00
   -8    8   19     -2.75      0.00
   -6    8   19     -2.53      0.00
   -4    8   19      1.32      0.00
   -2    8   19     -1.90      0.00
  -33    9   19      1.22      0.00
  -31    9   19     -0.86      0.00
  -29    9   19     -1.03      0.00
  -27    9   19      1.54      0.00
  -25    9   19      0.74      0.00
  -23    9   19      0.16      0.00
  -21    9   19      0.64      0.00
  -19    9   19      3.28      0.00
  -17    9   19     -0.79      0.00
  -15    9   19      0.26      0.00
  -13    9   19      2.04      0.00
  -11    9   19      1.87      0.00
   -9    9   19     -0.82      0.00
   -7    9   19     -1.93      0.00
   -5    9   19     -1.99      0.00
  -28   10   19     -3.43      0.00
  -26   10   19     -0.39      0.00
  -24   10   19      3.43      0.00
  -22   10   19      7.00      0.00
  -20   10   19      8.52      0.00
  -18   10   19      2.08      0.00
  -16   10   19     -1.71      0.00
  -14   10   19     -1.11      0.00
  -12   10   19      3.25      0.00
  -10   10   19      1.15      0.00
  -44    0   20     -0.17      0.00
  -42    0   20     -0.48      0.00
  -40    0   20      1.96      0.00
  -38    0   20      2.22      0.00
  -36    0   20      0.01      0.00
  -34    0   20      1.47      0.00
  -32    0   20      1.66      0.00
  -30    0   20      7.98      0.00
  -28    0   20      1.24      0.00
  -26    0   20     -4.62      0.00
  -24    0   20     -0.09      0.00
  -22    0   20      7.94      0.00
  -20    0   20      3.33      0.00
  -18    0   20     -6.64      0.00
  -16    0   20     -1.87      0.00
  -14    0   20      3.49      0.00
  -12    0   20      1.94      0.00
  -10    0   20     -0.34      0.00
   -8    0   20     -1.94      0.00
   -6    0   20     -1.96      0.00
   -4    0   20     -0.10      0.00
   -2    0   20      1.97      0.00
    0    0   20      4.37      0.00
    2    0   20      3.60      0.00
    4    0   20      0.90      0.00
    6    0   20     -0.16      0.00
  -45    1   20      0.53      0.00
  -43    1   20      2.11      0.00
  -41    1   20      0.91      0.00
  -39    1   20      1.27      0.00
  -37    1   20      3.36      0.00
  -35    1   20     -0.03      0.00
  -33    1   20     -2.49      0.00
  -31    1   20      1.46      0.00
  -29    1   20      4.55      0.00
  -27    1   20      2.85      0.00
  -25    1   20      0.65      0.00
  -23    1   20      5.57      0.00
  -21    1   20      5.13      0.00
  -19    1   20     -2.13      0.00
  -17    1   20     -2.58      0.00
  -15    1   20      1.77      0.00
  -13    1   20      3.43      0.00
  -11    1   20      3.37      0.00
   -9    1   20      0.49      0.00
   -7    1   20     -0.07      0.00
   -5    1   20      1.38      0.00
   -3    1   20     -1.07      0.00
   -1    1   20     -0.20      0.00
    1    1   20      2.31      0.00
    3    1   20      4.14      0.00
    5    1   20      3.45      0.00
  -44    2   20     -0.62      0.00
  -42    2   20      0.42      0.00
  -40    2   20     -0.05      0.00
  -38    2   20     -4.45      0.00
  -36    2   20     -4.60      0.00
  -34    2   20     -3.47      0.00
  -32    2   20     -2.20      0.00
  -30    2   20     -5.65      0.00
  -28    2   20      3.59      0.00
  -26    2   20     12.10      0.00
  -24    2   20      8.36      0.00
  -22    2   20      0.07      0.00
  -20    2   20      0.31      0.00
  -18    2   20      1.81      0.00
  -16    2   20     -1.01      0.00
  -14    2   20      0.17      0.00
  -12    2   20      0.84      0.00
  -10    2   20      1.78      0.00
   -8    2   20      1.71      0.00
   -6    2   20     -1.55      0.00
   -4    2   20     -0.69      0.00
   -2    2   20     -0.35      0.00
    0    2   20     -1.39      0.00
    2    2   20      1.15      0.00
    4    2   20      4.67      0.00
  -43    3   20     -4.29      0.00
  -41    3   20     -3.32      0.00
  -39    3   20     -4.44      0.00
  -37    3   20     -7.19      0.00
  -35    3   20     -3.89      0.00
  -33    3   20     -2.26      0.00
  -31    3   20     -3.80      0.00
  -29    3   20     -1.54      0.00
  -27    3   20      2.64      0.00
  -25    3   20      7.38      0.00
  -23    3   20      1.02      0.00
  -21    3   20     -1.19      0.00
  -19    3   20      0.58      0.00
  -17    3   20     -1.24      0.00
  -15    3   20     -0.30      0.00
  -13    3   20      1.55      0.00
  -11    3   20     -1.82      0.00
   -9    3   20     -0.14      0.00
   -7    3   20     -0.01      0.00
   -5    3   20     -3.38      0.00
   -3    3   20     -2.43      0.00
   -1    3   20     -2.93      0.00
    1    3   20      3.50      0.00
    3    3   20      3.21      0.00
    5    3   20     -0.05      0.00
  -42    4   20      0.93      0.00
  -40    4   20     -2.67      0.00
  -38    4   20      1.55      0.00
  -36    4   20      3.66      0.00
  -34    4   20      1.92      0.00
  -32    4   20      1.52      0.00
  -30    4   20      3.36      0.00
  -28    4   20     -1.25      0.00
  -26    4   20     -6.19      0.00
  -24    4   20     -2.88      0.00
  -22    4   20      3.13      0.00
  -20    4   20      0.71      0.00
  -18    4   20     -2.50      0.00
  -16    4   20     -2.23      0.00
  -14    4   20     -1.23      0.00
  -12    4   20     -1.25      0.00
  -10    4   20     -2.25      0.00
   -8    4   20      0.22      0.00
   -6    4   20      3.17      0.00
   -4    4   20     -1.78      0.00
   -2    4   20      0.08      0.00
    0    4   20      1.11      0.00
    2    4   20      0.14      0.00
    4    4   20     -0.32      0.00
  -41    5   20      1.26      0.00
  -39    5   20      3.34      0.00
  -37    5   20      5.48      0.00
  -35    5   20      7.39      0.00
  -33    5   20      9.84      0.00
  -31    5   20      8.27      0.00
  -29    5   20      0.45      0.00
  -27    5   20     -6.66      0.00
  -25    5   20    -10.27      0.00
  -23    5   20     -3.05      0.00
  -21    5   20      2.48      0.00
  -19    5   20      2.38      0.00
  -17    5   20     -3.22      0.00
  -15    5   20     -0.77      0.00
  -13    5   20      1.16      0.00
  -11    5   20      0.57      0.00
   -9    5   20      1.43      0.00
   -7    5   20      3.13      0.00
   -5    5   20     -0.35      0.00
   -3    5   20      0.76      0.00
   -1    5   20      7.07      0.00
    1    5   20     -3.78      0.00
    3    5   20     -1.14      0.00
  -40    6   20      1.93      0.00
  -38    6   20      3.24      0.00
  -36    6   20      6.30      0.00
  -34    6   20      8.52      0.00
  -32    6   20      4.84      0.00
  -30    6   20      2.62      0.00
  -28    6   20      1.18      0.00
  -26    6   20     -2.19      0.00
  -24    6   20     -6.16      0.00
  -22    6   20     -4.65      0.00
  -20    6   20      2.02      0.00
  -18    6   20      0.69      0.00
  -16    6   20     -3.57      0.00
  -14    6   20     -2.77      0.00
  -12    6   20      3.59      0.00
  -10    6   20      2.58      0.00
   -8    6   20     -1.28      0.00
   -6    6   20     -1.50      0.00
   -4    6   20      2.94      0.00
   -2    6   20     -0.56      0.00
    0    6   20      0.05      0.00
  -39    7   20     -0.60      0.00
  -37    7   20      1.91      0.00
  -35    7   20      3.01      0.00
  -33    7   20      4.18      0.00
  -31    7   20      2.23      0.00
  -29    7   20      1.83      0.00
  -27    7   20      4.93      0.00
  -25    7   20      1.52      0.00
  -23    7   20     -4.46      0.00
  -21    7   20     -3.11      0.00
  -19    7   20     -1.90      0.00
  -17    7   20      4.27      0.00
  -15    7   20     -1.12      0.00
  -13    7   20     -2.43      0.00
  -11    7   20     -0.27      0.00
   -9    7   20     -0.60      0.00
   -7    7   20     -2.86      0.00
   -5    7   20     -0.69      0.00
   -3    7   20      2.39      0.00
   -1    7   20     -2.79      0.00
  -36    8   20     -0.39      0.00
  -34    8   20     -2.79      0.00
  -32    8   20      0.88      0.00
  -30    8   20      1.24      0.00
  -28    8   20      1.39      0.00
  -26    8   20      2.69      0.00
  -24    8   20      3.29      0.00
  -22    8   20      1.35      0.00
  -20    8   20     -2.33      0.00
  -18    8   20      1.34      0.00
  -16    8   20      2.47      0.00
  -14    8   20      2.25      0.00
  -12    8   20     -1.23      0.00
  -10    8   20     -0.76      0.00
   -8    8   20      0.39      0.00
   -6    8   20      0.64      0.00
   -4    8   20     -1.04      0.00
  -31    9   20      0.86      0.00
  -29    9   20      3.51      0.00
  -27    9   20      0.71      0.00
  -25    9   20     -1.18      0.00
  -23    9   20     -2.64      0.00
  -21    9   20     -4.51      0.00
  -19    9   20      1.49      0.00
  -17    9   20      1.43      0.00
  -15    9   20      2.00      0.00
  -13    9   20     -1.15      0.00
  -11    9   20     -0.53      0.00
   -9    9   20     -1.99      0.00
   -7    9   20     -1.88      0.00
  -26   10   20     -1.57      0.00
  -24   10   20     -2.31      0.00
  -22   10   20      1.17      0.00
  -20   10   20      3.88      0.00
  -18   10   20     -1.15      0.00
  -16   10   20      0.69      0.00
  -14   10   20      1.20      0.00
  -45    1   21     -2.69      0.00
  -43    1   21     -1.94      0.00
  -41    1   21     -0.31      0.00
  -39    1   21      0.30      0.00
  -37    1   21      0.92      0.00
  -35    1   21      0.93      0.00
  -33    1   21      0.85      0.00
  -31    1   21      5.03      0.00
  -29    1   21     -3.79      0.00
  -27    1   21     -6.77      0.00
  -25    1   21     -1.38      0.00
  -23    1   21      4.38      0.00
  -21    1   21     -0.54      0.00
  -19    1   21     -5.41      0.00
  -17    1   21     -0.61      0.00
  -15    1   21      0.58      0.00
  -13    1   21      0.07      0.00
  -11    1   21     -0.56      0.00
   -9    1   21     -1.39      0.00
   -7    1   21      0.92      0.00
   -5    1   21      0.55      0.00
   -3    1   21      0.11      0.00
   -1    1   21      1.42      0.00
    1    1   21     -1.13      0.00
    3    1   21     -3.80      0.00
  -44    2   21      1.98      0.00
  -42    2   21      0.33      0.00
  -40    2   21      1.71      0.00
  -38    2   21      3.87      0.00
  -36    2   21     -0.99      0.00
  -34    2   21     -0.95      0.00
  -32    2   21      2.96      0.00
  -30    2   21      2.93      0.00
  -28    2   21      1.08      0.00
  -26    2   21     -1.02      0.00
  -24    2   21      5.11      0.00
  -22    2   21      2.72      0.00
  -20    2   21     -3.54      0.00
  -18    2   21     -1.54      0.00
  -16    2   21      1.51      0.00
  -14    2   21      2.29      0.00
  -12    2   21      4.11      0.00
  -10    2   21      1.32      0.00
   -8    2   21      1.69      0.00
   -6    2   21      3.29      0.00
   -4    2   21     -0.89      0.00
   -2    2   21     -1.16      0.00
    0    2   21     -1.71      0.00
    2    2   21     -0.55      0.00
  -43    3   21     -0.29      0.00
  -41    3   21      0.95      0.00
  -39    3   21     -4.34      0.00
  -37    3   21     -4.52      0.00
  -35    3   21     -0.25      0.00
  -33    3   21     -0.05      0.00
  -31    3   21     -1.84      0.00
  -29    3   21      8.46      0.00
  -27    3   21     14.46      0.00
  -25    3   21      7.55      0.00
  -23    3   21     -0.09      0.00
  -21    3   21      1.17      0.00
  -19    3   21      0.64      0.00
  -17    3   21     -1.29      0.00
  -15    3   21      0.85      0.00
  -13    3   21      1.60      0.00
  -11    3   21      2.74      0.00
   -9    3   21      1.50      0.00
   -7    3   21     -0.97      0.00
   -5    3   21      2.57      0.00
   -3    3   21      0.27      0.00
   -1    3   21     -1.37      0.00
    1    3   21      1.03      0.00
    3    3   21      2.45      0.00
  -42    4   21     -1.65      0.00
  -40    4   21     -2.97      0.00
  -38    4   21     -5.68      0.00
  -36    4   21     -3.87      0.00
  -34    4   21     -4.45      0.00
  -32    4   21     -1.99      0.00
  -30    4   21      5.00      0.00
  -28    4   21      9.52      0.00
  -26    4   21     12.03      0.00
  -24    4   21      3.38      0.00
  -22    4   21      0.27      0.00
  -20    4   21     -0.59      0.00
  -18    4   21     -1.02      0.00
  -16    4   21     -1.19      0.00
  -14    4   21      0.69      0.00
  -12    4   21     -0.01      0.00
  -10    4   21     -0.13      0.00
   -8    4   21     -1.09      0.00
   -6    4   21     -0.42      0.00
   -4    4   21     -2.12      0.00
   -2    4   21     -2.81      0.00
    0    4   21      7.49      0.00
    2    4   21      3.12      0.00
  -41    5   21     -2.77      0.00
  -39    5   21     -1.36      0.00
  -37    5   21     -1.30      0.00
  -35    5   21     -2.27      0.00
  -33    5   21      0.08      0.00
  -31    5   21      1.38      0.00
  -29    5   21      0.90      0.00
  -27    5   21      1.07      0.00
  -25    5   21      4.94      0.00
  -23    5   21      5.73      0.00
  -21    5   21      0.87      0.00
  -19    5   21     -1.30      0.00
  -17    5   21     -0.74      0.00
  -15    5   21     -1.11      0.00
  -13    5   21     -2.97      0.00
  -11    5   21     -1.73      0.00
   -9    5   21      0.02      0.00
   -7    5   21      0.05      0.00
   -5    5   21     -2.83      0.00
   -3    5   21      1.41      0.00
   -1    5   21      0.66      0.00
  -40    6   21     -0.33      0.00
  -38    6   21     -0.07      0.00
  -36    6   21      0.62      0.00
  -34    6   21      2.33      0.00
  -32    6   21      1.63      0.00
  -30    6   21     -2.97      0.00
  -28    6   21     -5.91      0.00
  -26    6   21     -3.24      0.00
  -24    6   21      4.29      0.00
  -22    6   21      6.07      0.00
  -20    6   21      4.23      0.00
  -18    6   21     -3.69      0.00
  -16    6   21      1.84      0.00
  -14    6   21      3.23      0.00
  -12    6   21      0.78      0.00
  -10    6   21      1.12      0.00
   -8    6   21      1.57      0.00
   -6    6   21     -2.96      0.00
   -4    6   21     -0.39      0.00
   -2    6   21      4.20      0.00
  -37    7   21      2.35      0.00
  -35    7   21      4.49      0.00
  -33    7   21      0.35      0.00
  -31    7   21     -0.66      0.00
  -29    7   21     -2.49      0.00
  -27    7   21     -3.75      0.00
  -25    7   21     -4.94      0.00
  -23    7   21     -0.12      0.00
  -21    7   21      4.93      0.00
  -19    7   21      0.38      0.00
  -17    7   21     -3.46      0.00
  -15    7   21     -1.23      0.00
  -13    7   21      4.86      0.00
  -11    7   21      1.74      0.00
   -9    7   21     -1.61      0.00
   -7    7   21     -1.10      0.00
   -5    7   21      1.42      0.00
   -3    7   21     -1.50      0.00
  -34    8   21      4.64      0.00
  -32    8   21      1.00      0.00
  -30    8   21     -1.89      0.00
  -28    8   21      0.40      0.00
  -26    8   21     -1.78      0.00
  -24    8   21     -2.08      0.00
  -22    8   21      1.59      0.00
  -20    8   21     -0.73      0.00
  -18    8   21      2.59      0.00
  -16    8   21     -1.39      0.00
  -14    8   21      1.06      0.00
  -12    8   21      1.50      0.00
  -10    8   21      1.49      0.00
   -8    8   21     -0.74      0.00
   -6    8   21     -0.61      0.00
  -31    9   21     -0.88      0.00
  -29    9   21     -0.85      0.00
  -27    9   21      0.40      0.00
  -25    9   21      1.32      0.00
  -23    9   21     -1.72      0.00
  -21    9   21     -2.14      0.00
  -19    9   21      2.54      0.00
  -17    9   21     -0.44      0.00
  -15    9   21     -0.24      0.00
  -13    9   21      0.72      0.00
  -11    9   21      2.76      0.00
  -44    0   22     -0.90      0.00
  -42    0   22     -0.45      0.00
  -40    0   22     -0.11      0.00
  -38    0   22     -2.56      0.00
  -36    0   22      0.01      0.00
  -34    0   22      0.65      0.00
  -32    0   22     -2.15      0.00
  -30    0   22      5.76      0.00
  -28    0   22      3.18      0.00
  -26    0   22     -3.49      0.00
  -24    0   22     -7.00      0.00
  -22    0   22      2.17      0.00
  -20    0   22      7.33      0.00
  -18    0   22     -0.13      0.00
  -16    0   22     -1.11      0.00
  -14    0   22      0.34      0.00
  -12    0   22      0.58      0.00
  -10    0   22      1.85      0.00
   -8    0   22     -0.24      0.00
   -6    0   22     -0.36      0.00
   -4    0   22     -1.81      0.00
   -2    0   22     -4.31      0.00
    0    0   22     -2.98      0.00
    2    0   22     -1.40      0.00
  -45    1   22     -2.56      0.00
  -43    1   22     -0.16      0.00
  -41    1   22     -1.28      0.00
  -39    1   22     -1.92      0.00
  -37    1   22      2.05      0.00
  -35    1   22      1.63      0.00
  -33    1   22     -0.07      0.00
  -31    1   22      0.27      0.00
  -29    1   22      0.50      0.00
  -27    1   22     -0.64      0.00
  -25    1   22     -5.81      0.00
  -23    1   22     -2.01      0.00
  -21    1   22      3.92      0.00
  -19    1   22      0.82      0.00
  -17    1   22     -3.54      0.00
  -15    1   22     -2.81      0.00
  -13    1   22     -2.38      0.00
  -11    1   22     -0.41      0.00
   -9    1   22      0.88      0.00
   -7    1   22      1.06      0.00
   -5    1   22      1.86      0.00
   -3    1   22     -0.41      0.00
   -1    1   22     -2.68      0.00
    1    1   22     -3.72      0.00
  -44    2   22      0.32      0.00
  -42    2   22      1.51      0.00
  -40    2   22      3.84      0.00
  -38    2   22      3.57      0.00
  -36    2   22      0.26      0.00
  -34    2   22      2.09      0.00
  -32    2   22      3.21      0.00
  -30    2   22     -8.24      0.00
  -28    2   22     -9.59      0.00
  -26    2   22     -3.36      0.00
  -24    2   22      0.96      0.00
  -22    2   22     -0.85      0.00
  -20    2   22      0.23      0.00
  -18    2   22      1.84      0.00
  -16    2   22     -0.79      0.00
  -14    2   22     -0.51      0.00
  -12    2   22     -1.34      0.00
  -10    2   22     -0.13      0.00
   -8    2   22      3.48      0.00
   -6    2   22      0.24      0.00
   -4    2   22      1.04      0.00
   -2    2   22      2.10      0.00
    0    2   22     -2.50      0.00
  -43    3   22      2.48      0.00
  -41    3   22      3.81      0.00
  -39    3   22      4.38      0.00
  -37    3   22     -0.28      0.00
  -35    3   22      1.35      0.00
  -33    3   22      0.31      0.00
  -31    3   22     -3.11      0.00
  -29    3   22     -3.69      0.00
  -27    3   22     -4.49      0.00
  -25    3   22      2.40      0.00
  -23    3   22      0.86      0.00
  -21    3   22      0.62      0.00
  -19    3   22      2.59      0.00
  -17    3   22      2.04      0.00
  -15    3   22      0.18      0.00
  -13    3   22      1.01      0.00
  -11    3   22     -0.64      0.00
   -9    3   22      1.50      0.00
   -7    3   22      3.08      0.00
   -5    3   22      1.32      0.00
   -3    3   22      0.42      0.00
   -1    3   22     -3.89      0.00
    1    3   22     -1.34      0.00
  -42    4   22      2.00      0.00
  -40    4   22     -3.33      0.00
  -38    4   22     -4.04      0.00
  -36    4   22     -1.29      0.00
  -34    4   22     -3.45      0.00
  -32    4   22     -3.63      0.00
  -30    4   22      4.03      0.00
  -28    4   22      7.46      0.00
  -26    4   22      1.31      0.00
  -24    4   22     -2.14      0.00
  -22    4   22      2.03      0.00
  -20    4   22      3.52      0.00
  -18    4   22      1.76      0.00
  -16    4   22      1.71      0.00
  -14    4   22      1.33      0.00
  -12    4   22      0.23      0.00
  -10    4   22     -1.00      0.00
   -8    4   22     -0.51      0.00
   -6    4   22      2.59      0.00
   -4    4   22     -0.87      0.00
   -2    4   22      0.09      0.00
    0    4   22      0.79      0.00
  -41    5   22     -2.68      0.00
  -39    5   22     -6.32      0.00
  -37    5   22     -6.72      0.00
  -35    5   22     -8.32      0.00
  -33    5   22     -4.44      0.00
  -31    5   22      2.03      0.00
  -29    5   22      6.31      0.00
  -27    5   22      7.01      0.00
  -25    5   22     -0.79      0.00
  -23    5   22     -1.86      0.00
  -21    5   22     -0.51      0.00
  -19    5   22      3.65      0.00
  -17    5   22     -1.14      0.00
  -15    5   22     -0.47      0.00
  -13    5   22      0.42      0.00
  -11    5   22     -1.59      0.00
   -9    5   22     -1.91      0.00
   -7    5   22      0.81      0.00
   -5    5   22     -3.05      0.00
   -3    5   22     -2.02      0.00
  -40    6   22     -3.17      0.00
  -38    6   22     -4.79      0.00
  -36    6   22     -5.94      0.00
  -34    6   22     -3.11      0.00
  -32    6   22     -2.33      0.00
  -30    6   22      0.08      0.00
  -28    6   22      2.41      0.00
  -26    6   22      5.71      0.00
  -24    6   22      2.37      0.00
  -22    6   22     -1.02      0.00
  -20    6   22      1.35      0.00
  -18    6   22      3.12      0.00
  -16    6   22     -0.31      0.00
  -14    6   22     -3.68      0.00
  -12    6   22     -0.01      0.00
  -10    6   22      0.82      0.00
   -8    6   22     -0.67      0.00
   -6    6   22     -1.80      0.00
   -4    6   22      1.54      0.00
  -37    7   22     -3.82      0.00
  -35    7   22     -3.57      0.00
  -33    7   22     -1.47      0.00
  -31    7   22     -2.05      0.00
  -29    7   22     -2.77      0.00
  -27    7   22      2.51      0.00
  -25    7   22      5.25      0.00
  -23    7   22      3.04      0.00
  -21    7   22      3.00      0.00
  -19    7   22     -2.79      0.00
  -17    7   22      3.23      0.00
  -15    7   22      1.80      0.00
  -13    7   22      1.55      0.00
  -11    7   22      2.13      0.00
   -9    7   22      2.02      0.00
   -7    7   22     -1.29      0.00
  -34    8   22     -1.17      0.00
  -32    8   22     -0.51      0.00
  -30    8   22     -1.79      0.00
  -28    8   22     -2.05      0.00
  -26    8   22     -2.79      0.00
  -24    8   22      1.81      0.00
  -22    8   22      2.00      0.00
  -20    8   22     -2.50      0.00
  -18    8   22     -1.93      0.00
  -16    8   22     -0.64      0.00
  -14    8   22      2.35      0.00
  -12    8   22      0.02      0.00
  -10    8   22     -0.76      0.00
  -29    9   22      2.36      0.00
  -27    9   22      1.52      0.00
  -25    9   22      2.21      0.00
  -23    9   22      2.08      0.00
  -21    9   22     -4.19      0.00
  -19    9   22     -1.51      0.00
  -17    9   22     -1.69      0.00
  -15    9   22      2.28      0.00
  -45    1   23      0.38      0.00
  -43    1   23      1.30      0.00
  -41    1   23      0.08      0.00
  -39    1   23     -2.12      0.00
  -37    1   23      1.65      0.00
  -35    1   23     -0.67      0.00
  -33    1   23     -0.90      0.00
  -31    1   23      7.08      0.00
  -29    1   23      2.75      0.00
  -27    1   23     -1.82      0.00
  -25    1   23     -3.14      0.00
  -23    1   23      3.26      0.00
  -21    1   23      4.35      0.00
  -19    1   23     -0.26      0.00
  -17    1   23      0.75      0.00
  -15    1   23      0.66      0.00
  -13    1   23      0.57      0.00
  -11    1   23     -0.24      0.00
   -9    1   23     -2.79      0.00
   -7    1   23      0.22      0.00
   -5    1   23     -0.62      0.00
   -3    1   23     -1.29      0.00
   -1    1   23      1.71      0.00
  -44    2   23      0.94      0.00
  -42    2   23     -0.39      0.00
  -40    2   23     -0.35      0.00
  -38    2   23      2.89      0.00
  -36    2   23     -0.08      0.00
  -34    2   23      0.54      0.00
  -32    2   23      0.93      0.00
  -30    2   23     -0.33      0.00
  -28    2   23     -0.82      0.00
  -26    2   23     -5.96      0.00
  -24    2   23     -0.68      0.00
  -22    2   23      2.73      0.00
  -20    2   23     -0.86      0.00
  -18    2   23     -3.74      0.00
  -16    2   23     -1.95      0.00
  -14    2   23     -2.06      0.00
  -12    2   23     -0.09      0.00
  -10    2   23     -0.80      0.00
   -8    2   23     -1.11      0.00
   -6    2   23      1.65      0.00
   -4    2   23      1.05      0.00
   -2    2   23      1.03      0.00
  -43    3   23      1.15      0.00
  -41    3   23      4.86      0.00
  -39    3   23      2.60      0.00
  -37    3   23     -1.63      0.00
  -35    3   23      1.84      0.00
  -33    3   23     -1.04      0.00
  -31    3   23    -12.76      0.00
  -29    3   23    -12.12      0.00
  -27    3   23     -3.96      0.00
  -25    3   23     -0.76      0.00
  -23    3   23     -2.22      0.00
  -21    3   23      0.17      0.00
  -19    3   23      1.07      0.00
  -17    3   23     -1.44      0.00
  -15    3   23     -1.08      0.00
  -13    3   23     -1.06      0.00
  -11    3   23     -0.03      0.00
   -9    3   23     -0.01      0.00
   -7    3   23     -2.94      0.00
   -5    3   23      0.93      0.00
   -3    3   23      0.73      0.00
  -42    4   23      2.57      0.00
  -40    4   23      4.13      0.00
  -38    4   23      1.30      0.00
  -36    4   23      2.79      0.00
  -34    4   23     -1.92      0.00
  -32    4   23     -6.49      0.00
  -30    4   23     -8.66      0.00
  -28    4   23     -8.13      0.00
  -26    4   23     -0.87      0.00
  -24    4   23     -2.02      0.00
  -22    4   23     -0.32      0.00
  -20    4   23     -0.88      0.00
  -18    4   23      0.54      0.00
  -16    4   23     -2.36      0.00
  -14    4   23     -1.68      0.00
  -12    4   23      0.24      0.00
  -10    4   23      1.77      0.00
   -8    4   23      1.21      0.00
   -6    4   23      1.41      0.00
   -4    4   23     -1.76      0.00
  -41    5   23      0.03      0.00
  -39    5   23      0.12      0.00
  -37    5   23      1.64      0.00
  -35    5   23     -0.29      0.00
  -33    5   23     -0.43      0.00
  -31    5   23      0.88      0.00
  -29    5   23      0.54      0.00
  -27    5   23     -4.27      0.00
  -25    5   23     -4.03      0.00
  -23    5   23     -0.28      0.00
  -21    5   23      0.85      0.00
  -19    5   23     -0.58      0.00
  -17    5   23      0.85      0.00
  -15    5   23      1.65      0.00
  -13    5   23      0.42      0.00
  -11    5   23      1.70      0.00
   -9    5   23      2.73      0.00
   -7    5   23      2.17      0.00
   -5    5   23     -1.23      0.00
  -38    6   23      0.59      0.00
  -36    6   23     -0.67      0.00
  -34    6   23      1.15      0.00
  -32    6   23      3.75      0.00
  -30    6   23      5.10      0.00
  -28    6   23      0.98      0.00
  -26    6   23     -4.25      0.00
  -24    6   23     -4.14      0.00
  -22    6   23     -3.25      0.00
  -20    6   23      2.22      0.00
  -18    6   23     -5.01      0.00
  -16    6   23     -2.78      0.00
  -14    6   23     -1.04      0.00
  -12    6   23     -0.44      0.00
  -10    6   23      1.68      0.00
   -8    6   23      3.41      0.00
   -6    6   23     -1.22      0.00
  -37    7   23     -1.91      0.00
  -35    7   23      1.28      0.00
  -33    7   23      1.59      0.00
  -31    7   23      3.37      0.00
  -29    7   23      3.76      0.00
  -27    7   23      4.14      0.00
  -25    7   23     -2.16      0.00
  -23    7   23     -3.13      0.00
  -21    7   23      0.09      0.00
  -19    7   23      0.22      0.00
  -17    7   23     -3.84      0.00
  -15    7   23     -6.09      0.00
  -13    7   23     -0.56      0.00
  -11    7   23      1.31      0.00
   -9    7   23      0.33      0.00
  -32    8   23      1.63      0.00
  -30    8   23     -0.30      0.00
  -28    8   23      3.59      0.00
  -26    8   23      1.82      0.00
  -24    8   23     -0.11      0.00
  -22    8   23      2.40      0.00
  -20    8   23     -2.28      0.00
  -18    8   23     -0.10      0.00
  -16    8   23     -4.03      0.00
  -14    8   23     -1.01      0.00
  -23    9   23      0.53      0.00
  -21    9   23     -1.80      0.00
  -44    0   24     -0.98      0.00
  -42    0   24      2.03      0.00
  -40    0   24      3.87      0.00
  -38    0   24     -2.42      0.00
  -36    0   24     -0.38      0.00
  -34    0   24     -2.64      0.00
  -32    0   24     -6.79      0.00
  -30    0   24      1.41      0.00
  -28    0   24      5.49      0.00
  -26    0   24      4.86      0.00
  -24    0   24     -4.23      0.00
  -22    0   24     -4.57      0.00
  -20    0   24      1.29      0.00
  -18    0   24     -0.60      0.00
  -16    0   24     -0.45      0.00
  -14    0   24      0.52      0.00
  -12    0   24     -0.07      0.00
  -10    0   24      0.45      0.00
   -8    0   24     -1.60      0.00
   -6    0   24      0.68      0.00
   -4    0   24      1.86      0.00
  -45    1   24     -0.70      0.00
  -43    1   24      0.69      0.00
  -41    1   24      0.49      0.00
  -39    1   24     -1.56      0.00
  -37    1   24     -1.10      0.00
  -35    1   24     -3.20      0.00
  -33    1   24     -2.89      0.00
  -31    1   24     -1.00      0.00
  -29    1   24      2.05      0.00
  -27    1   24      6.01      0.00
  -25    1   24      0.92      0.00
  -23    1   24     -1.91      0.00
  -21    1   24      2.07      0.00
  -19    1   24      4.00      0.00
  -17    1   24      1.31      0.00
  -15    1   24      1.63      0.00
  -13    1   24     -0.82      0.00
  -11    1   24     -2.77      0.00
   -9    1   24     -2.10      0.00
   -7    1   24     -1.92      0.00
   -5    1   24     -0.31      0.00
   -3    1   24      1.73      0.00
  -44    2   24     -1.45      0.00
  -42    2   24     -2.87      0.00
  -40    2   24     -1.60      0.00
  -38    2   24      1.38      0.00
  -36    2   24     -3.48      0.00
  -34    2   24      0.80      0.00
  -32    2   24      8.92      0.00
  -30    2   24      4.24      0.00
  -28    2   24      0.53      0.00
  -26    2   24     -0.37      0.00
  -24    2   24      0.50      0.00
  -22    2   24     -1.58      0.00
  -20    2   24     -2.00      0.00
  -18    2   24      0.13      0.00
  -16    2   24      0.25      0.00
  -14    2   24      0.84      0.00
  -12    2   24     -1.54      0.00
  -10    2   24     -2.63      0.00
   -8    2   24      0.75      0.00
   -6    2   24     -2.41      0.00
   -4    2   24     -1.41      0.00
  -43    3   24     -1.32      0.00
  -41    3   24     -0.45      0.00
  -39    3   24      1.92      0.00
  -37    3   24     -0.42      0.00
  -35    3   24      3.49      0.00
  -33    3   24      3.14      0.00
  -31    3   24      2.18      0.00
  -29    3   24      1.43      0.00
  -27    3   24     -2.96      0.00
  -25    3   24      0.04      0.00
  -23    3   24     -1.43      0.00
  -21    3   24     -1.95      0.00
  -19    3   24     -3.08      0.00
  -17    3   24      0.80      0.00
  -15    3   24      1.35      0.00
  -13    3   24      1.39      0.00
  -11    3   24     -1.50      0.00
   -9    3   24     -1.72      0.00
   -7    3   24      0.49      0.00
   -5    3   24      0.68      0.00
  -42    4   24      4.23      0.00
  -40    4   24      3.06      0.00
  -38    4   24      1.12      0.00
  -36    4   24      4.32      0.00
  -34    4   24      0.66      0.00
  -32    4   24     -6.88      0.00
  -30    4   24     -5.92      0.00
  -28    4   24      0.86      0.00
  -26    4   24      1.00      0.00
  -24    4   24     -2.75      0.00
  -22    4   24     -2.03      0.00
  -20    4   24     -0.24      0.00
  -18    4   24     -2.00      0.00
  -16    4   24     -0.94      0.00
  -14    4   24      1.02      0.00
  -12    4   24      0.16      0.00
  -10    4   24     -1.45      0.00
   -8    4   24     -1.51      0.00
   -6    4   24      0.89      0.00
  -41    5   24      5.01      0.00
  -39    5   24      3.46      0.00
  -37    5   24      5.39      0.00
  -35    5   24      1.57      0.00
  -33    5   24     -2.12      0.00
  -31    5   24     -6.18      0.00
  -29    5   24     -3.67      0.00
  -27    5   24      1.01      0.00
  -25    5   24     -0.53      0.00
  -23    5   24     -0.10      0.00
  -21    5   24     -3.11      0.00
  -19    5   24      2.09      0.00
  -17    5   24     -2.09      0.00
  -15    5   24     -1.19      0.00
  -13    5   24      1.22      0.00
  -11    5   24      0.77      0.00
   -9    5   24      0.29      0.00
   -7    5   24      1.72      0.00
  -38    6   24      3.14      0.00
  -36    6   24      2.09      0.00
  -34    6   24      1.52      0.00
  -32    6   24     -0.52      0.00
  -30    6   24     -2.09      0.00
  -28    6   24     -4.38      0.00
  -26    6   24     -0.95      0.00
  -24    6   24      0.77      0.00
  -22    6   24      0.64      0.00
  -20    6   24      0.06      0.00
  -18    6   24      2.94      0.00
  -16    6   24      3.00      0.00
  -14    6   24     -0.16      0.00
  -12    6   24      0.68      0.00
  -10    6   24      1.27      0.00
  -35    7   24      0.40      0.00
  -33    7   24      0.63      0.00
  -31    7   24      0.60      0.00
  -29    7   24     -4.81      0.00
  -27    7   24     -4.06      0.00
  -25    7   24     -3.21      0.00
  -23    7   24     -3.33      0.00
  -21    7   24      2.40      0.00
  -19    7   24     -2.86      0.00
  -17    7   24     -0.30      0.00
  -15    7   24     -2.05      0.00
  -13    7   24     -0.52      0.00
  -30    8   24      0.93      0.00
  -28    8   24      0.08      0.00
  -26    8   24     -4.83      0.00
  -24    8   24     -1.43      0.00
  -22    8   24      0.65      0.00
  -20    8   24     -0.10      0.00
  -18    8   24     -0.85      0.00
  -43    1   25      1.35      0.00
  -41    1   25      1.30      0.00
  -39    1   25     -2.48      0.00
  -37    1   25      1.64      0.00
  -35    1   25     -3.04      0.00
  -33    1   25     -5.20      0.00
  -31    1   25      1.40      0.00
  -29    1   25      2.61      0.00
  -27    1   25      1.55      0.00
  -25    1   25     -3.16      0.00
  -23    1   25     -2.09      0.00
  -21    1   25      0.47      0.00
  -19    1   25     -1.14      0.00
  -17    1   25     -0.51      0.00
  -15    1   25      0.58      0.00
  -13    1   25      1.64      0.00
  -11    1   25      1.15      0.00
   -9    1   25     -1.49      0.00
   -7    1   25      0.59      0.00
   -5    1   25     -0.28      0.00
  -44    2   25     -1.27      0.00
  -42    2   25     -1.31      0.00
  -40    2   25     -1.88      0.00
  -38    2   25     -0.76      0.00
  -36    2   25     -3.67      0.00
  -34    2   25     -0.52      0.00
  -32    2   25      1.04      0.00
  -30    2   25      2.84      0.00
  -28    2   25      5.82      0.00
  -26    2   25      0.90      0.00
  -24    2   25      0.12      0.00
  -22    2   25      2.78      0.00
  -20    2   25      4.10      0.00
  -18    2   25     -0.38      0.00
  -16    2   25     -0.09      0.00
  -14    2   25     -1.59      0.00
  -12    2   25     -0.33      0.00
  -10    2   25      0.11      0.00
   -8    2   25     -1.84      0.00
   -6    2   25     -0.84      0.00
  -43    3   25     -3.57      0.00
  -41    3   25     -0.65      0.00
  -39    3   25      0.83      0.00
  -37    3   25     -2.48      0.00
  -35    3   25      5.36      0.00
  -33    3   25     11.96      0.00
  -31    3   25      6.68      0.00
  -29    3   25      1.32      0.00
  -27    3   25      1.50      0.00
  -25    3   25      1.68      0.00
  -23    3   25     -0.89      0.00
  -21    3   25     -0.64      0.00
  -19    3   25      1.55      0.00
  -17    3   25      0.80      0.00
  -15    3   25      0.06      0.00
  -13    3   25      0.26      0.00
  -11    3   25      1.44      0.00
   -9    3   25      1.59      0.00
   -7    3   25     -1.58      0.00
  -42    4   25     -1.60      0.00
  -40    4   25     -0.08      0.00
  -38    4   25     -1.78      0.00
  -36    4   25      3.03      0.00
  -34    4   25      4.70      0.00
  -32    4   25      7.10      0.00
  -30    4   25      4.15      0.00
  -28    4   25      1.76      0.00
  -26    4   25      3.58      0.00
  -24    4   25      1.60      0.00
  -22    4   25      3.57      0.00
  -20    4   25      0.41      0.00
  -18    4   25      5.03      0.00
  -16    4   25      2.56      0.00
  -14    4   25     -0.41      0.00
  -12    4   25     -2.10      0.00
  -10    4   25     -1.10      0.00
   -8    4   25      0.69      0.00
  -39    5   25     -2.01      0.00
  -37    5   25     -0.72      0.00
  -35    5   25     -1.26      0.00
  -33    5   25     -2.21      0.00
  -31    5   25     -0.72      0.00
  -29    5   25      3.85      0.00
  -27    5   25      2.38      0.00
  -25    5   25     -0.79      0.00
  -23    5   25     -0.45      0.00
  -21    5   25      1.57      0.00
  -19    5   25     -1.04      0.00
  -17    5   25     -0.94      0.00
  -15    5   25      0.03      0.00
  -13    5   25     -2.39      0.00
  -11    5   25     -2.72      0.00
  -38    6   25     -0.55      0.00
  -36    6   25     -2.37      0.00
  -34    6   25     -3.63      0.00
  -32    6   25     -5.22      0.00
  -30    6   25      0.06      0.00
  -28    6   25      1.00      0.00
  -26    6   25      2.13      0.00
  -24    6   25      2.73      0.00
  -22    6   25     -0.97      0.00
  -20    6   25      5.66      0.00
  -18    6   25      0.86      0.00
  -16    6   25      0.74      0.00
  -14    6   25     -1.07      0.00
  -12    6   25     -2.36      0.00
  -33    7   25     -2.73      0.00
  -31    7   25     -2.96      0.00
  -29    7   25     -1.89      0.00
  -27    7   25      3.01      0.00
  -25    7   25      2.57      0.00
  -23    7   25      2.65      0.00
  -21    7   25      3.11      0.00
  -19    7   25      5.87      0.00
  -17    7   25      4.92      0.00
  -44    0   26     -3.76      0.00
  -42    0   26     -2.17      0.00
  -40    0   26      2.13      0.00
  -38    0   26     -0.05      0.00
  -36    0   26      5.51      0.00
  -34    0   26      3.20      0.00
  -32    0   26     -4.58      0.00
  -30    0   26     -6.70      0.00
  -28    0   26     -4.42      0.00
  -26    0   26      1.72      0.00
  -24    0   26      0.62      0.00
  -22    0   26     -1.29      0.00
  -20    0   26      0.38      0.00
  -18    0   26     -1.93      0.00
  -16    0   26     -3.04      0.00
  -14    0   26     -0.70      0.00
  -12    0   26      1.41      0.00
  -10    0   26      2.30      0.00
   -8    0   26      0.68      0.00
  -43    1   26     -0.46      0.00
  -41    1   26      0.60      0.00
  -39    1   26      2.08      0.00
  -37    1   26      4.52      0.00
  -35    1   26      2.10      0.00
  -33    1   26     -0.40      0.00
  -31    1   26     -4.88      0.00
  -29    1   26     -7.32      0.00
  -27    1   26     -3.35      0.00
  -25    1   26     -2.31      0.00
  -23    1   26     -4.07      0.00
  -21    1   26     -3.10      0.00
  -19    1   26     -0.52      0.00
  -17    1   26     -1.62      0.00
  -15    1   26      1.72      0.00
  -13    1   26      2.34      0.00
  -11    1   26      1.01      0.00
   -9    1   26      1.72      0.00
  -42    2   26      0.13      0.00
  -40    2   26     -0.33      0.00
  -38    2   26      2.95      0.00
  -36    2   26     -4.03      0.00
  -34    2   26     -5.25      0.00
  -32    2   26     -0.78      0.00
  -30    2   26     -0.34      0.00
  -28    2   26     -0.83      0.00
  -26    2   26     -0.25      0.00
  -24    2   26      1.24      0.00
  -22    2   26      1.37      0.00
  -20    2   26      0.12      0.00
  -18    2   26     -0.84      0.00
  -16    2   26     -0.57      0.00
  -14    2   26      0.76      0.00
  -12    2   26     -0.02      0.00
  -10    2   26     -0.45      0.00
   -8    2   26      2.26      0.00
  -41    3   26     -0.93      0.00
  -39    3   26     -0.44      0.00
  -37    3   26     -3.41      0.00
  -35    3   26     -0.55      0.00
  -33    3   26     -1.36      0.00
  -31    3   26      0.44      0.00
  -29    3   26      1.30      0.00
  -27    3   26     -0.07      0.00
  -25    3   26      0.56      0.00
  -23    3   26      0.46      0.00
  -21    3   26      3.06      0.00
  -19    3   26     -2.98      0.00
  -17    3   26     -2.51      0.00
  -15    3   26     -1.53      0.00
  -13    3   26      1.37      0.00
  -11    3   26      0.31      0.00
   -9    3   26     -1.10      0.00
  -40    4   26     -0.72      0.00
  -38    4   26     -2.56      0.00
  -36    4   26      2.40      0.00
  -34    4   26      5.53      0.00
  -32    4   26      1.82      0.00
  -30    4   26     -3.00      0.00
  -28    4   26     -0.35      0.00
  -26    4   26      1.55      0.00
  -24    4   26     -0.58      0.00
  -22    4   26     -0.44      0.00
  -20    4   26      2.80      0.00
  -18    4   26      0.51      0.00
  -16    4   26     -1.70      0.00
  -14    4   26      0.75      0.00
  -12    4   26      1.20      0.00
  -39    5   26     -3.31      0.00
  -37    5   26     -0.23      0.00
  -35    5   26      2.46      0.00
  -33    5   26      5.45      0.00
  -31    5   26      0.58      0.00
  -29    5   26      1.31      0.00
  -27    5   26      0.42      0.00
  -25    5   26     -0.52      0.00
  -23    5   26      2.18      0.00
  -21    5   26     -1.98      0.00
  -19    5   26      4.16      0.00
  -17    5   26      0.57      0.00
  -15    5   26     -1.26      0.00
  -13    5   26     -1.42      0.00
  -36    6   26     -0.83      0.00
  -34    6   26      0.54      0.00
  -32    6   26      1.22      0.00
  -30    6   26      2.38      0.00
  -28    6   26     -0.93      0.00
  -26    6   26     -3.46      0.00
  -24    6   26     -3.71      0.00
  -22    6   26     -1.90      0.00
  -20    6   26     -3.71      0.00
  -18    6   26     -2.14      0.00
  -16    6   26      0.25      0.00
  -31    7   26      4.00      0.00
  -29    7   26      0.66      0.00
  -27    7   26      2.78      0.00
  -25    7   26      1.33      0.00
  -23    7   26     -3.19      0.00
  -21    7   26      1.84      0.00
  -43    1   27      0.15      0.00
  -41    1   27      1.12      0.00
  -39    1   27     -0.55      0.00
  -37    1   27      4.61      0.00
  -35    1   27      1.76      0.00
  -33    1   27     -2.29      0.00
  -31    1   27     -2.70      0.00
  -29    1   27     -0.58      0.00
  -27    1   27      1.73      0.00
  -25    1   27      1.41      0.00
  -23    1   27      0.65      0.00
  -21    1   27      0.78      0.00
  -19    1   27     -0.40      0.00
  -17    1   27     -1.29      0.00
  -15    1   27     -0.29      0.00
  -13    1   27      1.08      0.00
  -11    1   27      1.09      0.00
  -42    2   27      0.97      0.00
  -40    2   27      1.89      0.00
  -38    2   27      2.79      0.00
  -36    2   27     -1.20      0.00
  -34    2   27     -1.55      0.00
  -32    2   27     -4.78      0.00
  -30    2   27     -5.74      0.00
  -28    2   27     -3.21      0.00
  -26    2   27     -1.89      0.00
  -24    2   27     -2.67      0.00
  -22    2   27     -2.31      0.00
  -20    2   27      2.29      0.00
  -18    2   27      0.96      0.00
  -16    2   27      2.18      0.00
  -14    2   27     -0.19      0.00
  -12    2   27     -0.15      0.00
  -41    3   27      0.17      0.00
  -39    3   27      0.37      0.00
  -37    3   27     -6.48      0.00
  -35    3   27     -6.68      0.00
  -33    3   27     -1.97      0.00
  -31    3   27      0.23      0.00
  -29    3   27     -1.86      0.00
  -27    3   27     -0.55      0.00
  -25    3   27      0.80      0.00
  -23    3   27     -0.07      0.00
  -21    3   27     -1.44      0.00
  -19    3   27     -0.58      0.00
  -17    3   27      0.02      0.00
  -15    3   27     -1.33      0.00
  -13    3   27     -1.09      0.00
  -40    4   27      1.38      0.00
  -38    4   27     -2.16      0.00
  -36    4   27     -3.29      0.00
  -34    4   27     -4.92      0.00
  -32    4   27     -1.19      0.00
  -30    4   27     -3.31      0.00
  -28    4   27     -2.39      0.00
  -26    4   27     -3.28      0.00
  -24    4   27     -4.20      0.00
  -22    4   27     -0.14      0.00
  -20    4   27     -5.65      0.00
  -18    4   27     -1.33      0.00
  -16    4   27      1.05      0.00
  -14    4   27      2.42      0.00
  -37    5   27      1.18      0.00
  -35    5   27      1.26      0.00
  -33    5   27     -0.04      0.00
  -31    5   27     -2.84      0.00
  -29    5   27      0.40      0.00
  -27    5   27      1.98      0.00
  -25    5   27     -0.57      0.00
  -23    5   27     -1.44      0.00
  -21    5   27      1.93      0.00
  -19    5   27     -0.03      0.00
  -17    5   27     -1.37      0.00
  -32    6   27      0.36      0.00
  -30    6   27      2.64      0.00
  -28    6   27     -2.12      0.00
  -26    6   27     -1.51      0.00
  -24    6   27      0.22      0.00
  -22    6   27     -4.49      0.00
  -20    6   27      1.08      0.00
  -40    0   28     -1.45      0.00
  -38    0   28     -5.32      0.00
  -36    0   28     -0.26      0.00
  -34    0   28      5.72      0.00
  -32    0   28      8.18      0.00
  -30    0   28      4.24      0.00
  -28    0   28      1.03      0.00
  -26    0   28     -0.05      0.00
  -24    0   28      0.19      0.00
  -22    0   28      1.91      0.00
  -20    0   28      4.53      0.00
  -18    0   28      3.39      0.00
  -16    0   28     -0.52      0.00
  -14    0   28     -1.55      0.00
  -41    1   28     -2.39      0.00
  -39    1   28     -3.10      0.00
  -37    1   28     -0.49      0.00
  -35    1   28      2.49      0.00
  -33    1   28      7.71      0.00
  -31    1   28      8.85      0.00
  -29    1   28      6.39      0.00
  -27    1   28      4.24      0.00
  -25    1   28      3.34      0.00
  -23    1   28      1.64      0.00
  -21    1   28      1.03      0.00
  -19    1   28      1.79      0.00
  -17    1   28     -1.23      0.00
  -15    1   28      0.00      0.00
  -40    2   28     -0.53      0.00
  -38    2   28      3.50      0.00
  -36    2   28      1.58      0.00
  -34    2   28      0.08      0.00
  -32    2   28      0.62      0.00
  -30    2   28      2.19      0.00
  -28    2   28      0.56      0.00
  -26    2   28      0.54      0.00
  -24    2   28     -0.61      0.00
  -22    2   28     -0.26      0.00
  -20    2   28      1.54      0.00
  -18    2   28      1.32      0.00
  -16    2   28      1.20      0.00
  -39    3   28      1.00      0.00
  -37    3   28     -0.66      0.00
  -35    3   28      0.52      0.00
  -33    3   28     -1.59      0.00
  -31    3   28     -0.39      0.00
  -29    3   28     -0.86      0.00
  -27    3   28      1.64      0.00
  -25    3   28     -0.45      0.00
  -23    3   28     -2.95      0.00
  -21    3   28      3.29      0.00
  -19    3   28      1.63      0.00
  -17    3   28      0.77      0.00
  -38    4   28     -1.91      0.00
  -36    4   28     -1.75      0.00
  -34    4   28      1.32      0.00
  -32    4   28      3.20      0.00
  -30    4   28     -0.66      0.00
  -28    4   28      0.50      0.00
  -26    4   28      1.89      0.00
  -24    4   28     -0.67      0.00
  -22    4   28     -3.19      0.00
  -20    4   28      0.53      0.00
  -18    4   28      1.90      0.00
  -33    5   28      0.74      0.00
  -31    5   28     -2.24      0.00
  -29    5   28      2.27      0.00
  -27    5   28      0.44      0.00
  -25    5   28     -0.30      0.00
  -23    5   28      1.48      0.00
  -21    5   28     -4.25      0.00
  -39    1   29     -3.38      0.00
  -37    1   29     -0.36      0.00
  -35    1   29      2.48      0.00
  -33    1   29      2.60      0.00
  -31    1   29     -1.04      0.00
  -29    1   29     -1.48      0.00
  -27    1   29     -3.10      0.00
  -25    1   29     -1.27      0.00
  -23    1   29      0.50      0.00
  -21    1   29      0.38      0.00
  -19    1   29     -0.06      0.00
  -38    2   29      1.60      0.00
  -36    2   29      2.51      0.00
  -34    2   29      5.81      0.00
  -32    2   29      5.65      0.00
  -30    2   29      4.16      0.00
  -28    2   29      0.50      0.00
  -26    2   29      1.20      0.00
  -24    2   29      0.46      0.00
  -22    2   29     -2.20      0.00
  -20    2   29     -0.97      0.00
  -18    2   29     -1.44      0.00
  -37    3   29      2.12      0.00
  -35    3   29     -0.43      0.00
  -33    3   29     -0.47      0.00
  -31    3   29      2.05      0.00
  -29    3   29     -0.28      0.00
  -27    3   29      0.36      0.00
  -25    3   29      0.24      0.00
  -23    3   29      0.61      0.00
  -21    3   29      0.43      0.00
  -34    4   29     -0.12      0.00
  -32    4   29      2.65      0.00
  -30    4   29      0.79      0.00
  -28    4   29      4.61      0.00
  -26    4   29      1.42      0.00
  -24    4   29     -0.88      0.00
  -36    0   30     -6.89      0.00
  -34    0   30     -6.98      0.00
  -32    0   30     -1.76      0.00
  -30    0   30     -0.70      0.00
  -28    0   30      2.04      0.00
  -26    0   30     -0.60      0.00
  -24    0   30     -3.98      0.00
  -22    0   30     -3.60      0.00
  -37    1   30     -4.09      0.00
  -35    1   30     -8.19      0.00
  -33    1   30     -8.30      0.00
  -31    1   30     -5.84      0.00
  -29    1   30     -2.19      0.00
  -27    1   30     -1.21      0.00
  -25    1   30     -0.88      0.00
  -23    1   30     -1.58      0.00
  -36    2   30      0.51      0.00
  -34    2   30     -1.06      0.00
  -32    2   30     -2.94      0.00
  -30    2   30     -0.94      0.00
  -28    2   30     -1.78      0.00
  -26    2   30      1.38      0.00
  -24    2   30      0.55      0.00
  -31    3   30      0.40      0.00
  -29    3   30     -2.89      0.00
  -27    3   30      2.46      0.00
   34    2    0     -1.58      0.00
   28    8    0     -0.79      0.00
   16   12    0     -0.28      0.00
    1   13    0      1.29      0.00
    3   13    0     -2.45      0.00
    5   13    0     -3.53      0.00
   -3    1    1    128.62      0.00
    1    1    1      7.77      0.00
  -34    4    1     -3.68      0.00
   32    4    1     -2.66      0.00
  -33    5    1     -0.76      0.00
   31    5    1     -0.21      0.00
  -32    6    1     -1.86      0.00
   30    6    1     -1.63      0.00
  -21   11    1      0.85      0.00
  -11   13    1     -7.90      0.00
   -3   13    1     -4.72      0.00
   -1   13    1     -5.77      0.00
    1   13    1     -5.37      0.00
    3   13    1     -3.38      0.00
    5   13    1     -5.53      0.00
    7   13    1     -8.86      0.00
    9   13    1     -5.26      0.00
   -1    1    2    -92.02      0.00
  -36    2    2      1.27      0.00
   32    2    2      0.20      0.00
  -18   12    2     -1.11      0.00
   14   12    2     -0.28      0.00
   -1   13    2      0.55      0.00
    1   13    2      3.45      0.00
    3   13    2     -0.92      0.00
    5   13    2     -3.34      0.00
    7   13    2      3.22      0.00
  -37    1    3     -0.69      0.00
   29    5    3     -0.41      0.00
  -26   10    3     -0.67      0.00
   20   10    3      2.48      0.00
  -23   11    3     -3.75      0.00
   17   11    3     -1.35      0.00
  -13   13    3      7.01      0.00
   -1   13    3      1.73      0.00
    1   13    3      0.67      0.00
    3   13    3      5.38      0.00
    5   13    3      6.60      0.00
    7   13    3      1.71      0.00
  -38    0    4     -0.31      0.00
  -33    7    4      1.43      0.00
  -13   13    4      0.69      0.00
    1   13    4      1.96      0.00
    3   13    4      0.14      0.00
    5   13    4     -3.35      0.00
   29    1    5      0.07      0.00
  -20   12    5      3.41      0.00
   10   12    5      3.56      0.00
  -13   13    5      0.16      0.00
    1   13    5     -5.59      0.00
    3   13    5     -3.71      0.00
   27    3    6     -0.13      0.00
  -36    6    6     -0.20      0.00
  -31    9    6     -1.27      0.00
   19    9    6      1.36      0.00
  -25   11    6     -0.76      0.00
   13   11    6      3.62      0.00
  -13   13    6      3.20      0.00
  -40    2    7      2.35      0.00
  -13   13    7     -2.15      0.00
   -1   13    7      3.87      0.00
  -41    1    8     -1.73      0.00
    6   12    8     -0.28      0.00
  -13   13    8      3.59      0.00
   -3   13    8      1.19      0.00
  -41    3    9      0.16      0.00
  -38    6    9     -3.02      0.00
   19    7    9     -0.85      0.00
   15    9    9     -0.28      0.00
  -30   10    9      0.85      0.00
   12   10    9      0.61      0.00
  -22   12    9     -3.28      0.00
    4   12    9      1.41      0.00
  -11   13    9     -2.66      0.00
   -9   13    9      0.47      0.00
   -7   13    9     -3.08      0.00
  -42    2   10     -2.79      0.00
  -27   11   10      0.66      0.00
    7   11   10      4.22      0.00
  -22   12   10     -1.00      0.00
    2   12   10     -1.78      0.00
  -43    1   11      0.08      0.00
  -36    8   11      0.73      0.00
   14    8   11     -2.44      0.00
  -27   11   11     -2.27      0.00
    5   11   11     -1.85      0.00
  -22   12   11      0.48      0.00
    0   12   11      1.77      0.00
   20    0   12      3.36      0.00
   19    3   12      1.68      0.00
  -42    4   12     -0.16      0.00
  -41    5   12     -5.49      0.00
   16    6   12     -2.29      0.00
  -27   11   12     -0.49      0.00
   18    2   13     -0.59      0.00
   13    7   13      0.24      0.00
  -27   11   13      0.59      0.00
    1   11   13      2.87      0.00
  -20   12   13     -1.82      0.00
   -6   12   13      2.53      0.00
  -39    7   14      3.16      0.00
  -27   11   14     -1.75      0.00
   -1   11   14     -0.62      0.00
  -18   12   14      1.53      0.00
  -10   12   14     -2.80      0.00
  -45    1   15     -0.12      0.00
    5    9   15     -2.60      0.00
   -3   11   15     -2.01      0.00
   12    4   16     -0.24      0.00
    3    9   16     -0.61      0.00
   11    3   17      0.76      0.00
   10    4   17      0.21      0.00
    9    5   17     -0.26      0.00
    1    9   17      1.42      0.00
   -9   11   17     -2.21      0.00
  -46    0   18      1.47      0.00
  -44    4   18      1.49      0.00
  -43    5   18      0.29      0.00
  -30   10   18     -0.61      0.00
   -6   10   18      1.08      0.00
  -21   11   18     -2.33      0.00
  -19   11   18     -3.98      0.00
  -15   11   18      1.52      0.00
    8    2   19     -1.06      0.00
  -45    3   19     -0.42      0.00
  -44    4   19      0.47      0.00
  -43    5   19      1.29      0.00
  -46    0   20      1.81      0.00
    6    2   20      2.67      0.00
  -45    3   20     -0.97      0.00
  -44    4   20      1.43      0.00
  -43    5   20      1.99      0.00
  -33    9   20      0.39      0.00
  -12   10   20     -0.16      0.00
    4    2   21     -0.58      0.00
  -45    3   21     -1.67      0.00
  -44    4   21     -3.65      0.00
    1    5   21      0.58      0.00
  -39    7   21      0.08      0.00
  -36    8   21      2.21      0.00
  -24   10   21     -6.74      0.00
  -22   10   21     -6.39      0.00
  -20   10   21      1.49      0.00
  -18   10   21      1.39      0.00
  -46    0   22      0.76      0.00
    2    2   22     -3.84      0.00
  -45    3   22      3.87      0.00
  -44    4   22      0.47      0.00
   -1    5   22      6.20      0.00
   -5    7   22      0.18      0.00
  -13    9   22      0.05      0.00
   -1    3   23     -1.88      0.00
   -2    4   23     -6.14      0.00
  -40    6   23     -1.00      0.00
  -34    8   23      1.09      0.00
  -12    8   23     -0.63      0.00
  -27    9   23     -1.17      0.00
  -25    9   23      3.44      0.00
  -19    9   23      0.91      0.00
   -2    0   24      2.10      0.00
   -8    6   24      0.30      0.00
  -11    7   24      0.62      0.00
  -32    8   24      0.84      0.00
  -16    8   24     -2.11      0.00
  -45    1   25     -1.53      0.00
  -41    5   25      0.16      0.00
   -9    5   25     -0.78      0.00
  -35    7   25     -1.46      0.00
  -15    7   25      0.08      0.00
  -28    8   25     -0.59      0.00
  -26    8   25     -1.10      0.00
  -24    8   25     -1.73      0.00
  -22    8   25      3.39      0.00
   -7    1   26      0.80      0.00
  -44    2   26      1.99      0.00
  -43    3   26     -0.50      0.00
  -10    4   26     -0.09      0.00
  -19    7   26     -0.36      0.00
  -15    5   27      1.57      0.00
  -34    6   27      4.36      0.00
  -42    0   28     -0.64      0.00
  -13    1   28      0.39      0.00
  -42    2   28     -0.50      0.00
  -14    2   28      0.94      0.00
  -15    3   28     -1.39      0.00
  -35    5   28     -2.68      0.00
  -28    6   28      5.11      0.00
  -41    1   29     -1.37      0.00
  -17    1   29     -1.28      0.00
  -40    2   29     -0.51      0.00
  -19    3   29      0.43      0.00
  -36    4   29      1.79      0.00
  -22    4   29      3.85      0.00
  -29    5   29     -0.95      0.00
  -38    0   30     -0.92      0.00
  -21    1   30     -1.13      0.00
  -22    2   30     -2.24      0.00
  -35    3   30      1.85      0.00
  -33    3   30      0.71      0.00
  -25    3   30      2.92      0.00
  -33    1   31      2.86      0.00
  -31    1   31      2.09      0.00
  -29    1   31      3.68      0.00
    0    0    0      0.00      0.00
# SQUEEZE RESULTS (Version = 230418)
# Note: Data are Listed for all Voids in the P1 Unit Cell
# i.e. Centre of Gravity, Solvent Accessible Volume,
# Recovered number of Electrons in the Void and
# Details about the Squeezed Material
loop_
  _platon_squeeze_void_nr
  _platon_squeeze_void_average_x
  _platon_squeeze_void_average_y
  _platon_squeeze_void_average_z
  _platon_squeeze_void_volume
  _platon_squeeze_void_count_electrons
  _platon_squeeze_void_content
   1  0.000 -0.172  0.250       275       105 ' '
   2  0.000  0.172  0.750       274       104 ' '
   3  0.500  0.328  0.250       275       105 ' '
   4  0.500  0.672  0.750       274       104 ' '
# Missing Reflections Below sin(th)/lambda = 0.25
loop_
  _platon_missing_refln_index_h
  _platon_missing_refln_index_k
  _platon_missing_refln_index_l
  _platon_missing_refln_theta
   -3    1    1     2.604
    1    1    1     2.595
   -1    1    2     2.671
_platon_squeeze_void_probe_radius                  1.20
_platon_squeeze_details
)
TITL shelx     C 2/c        R = 0.06
CELL   35.8175   10.5633   24.0946     90.00    131.78     90.00
SPGR C2/c
# Solvent Accessible Volume =      1096
# Electrons Found in S.A.V. =       419
# Note: Atoms in Void are Labelled as Cxxx and Qxxx for all Others
C101 0.446 0.313 0.158 !       3.62 eA-3
C102 0.532 0.404 0.291 !       3.60 eA-3
C103 0.393 0.346 0.083 !       3.59 eA-3
C104 0.522 0.445 0.270 !       3.43 eA-3
C105 0.632 0.280 0.443 !       3.25 eA-3
C106 0.976 0.219 0.703 !       2.24 eA-3
C107 0.954 0.314 0.670 !       0.87 eA-3
C108 0.567 0.415 0.296 !       0.82 eA-3
C109 0.831 0.212 0.543 !       0.80 eA-3
C110 0.340 0.236 0.057 !       0.80 eA-3
Q111 0.905 0.229 0.062 !       0.80 eA-3
Q112 0.414 0.124 0.634 !       0.79 eA-3
C113 0.486 0.277 0.290 !       0.78 eA-3
Q114 0.273 0.220 0.453 !       0.77 eA-3
Q115 0.057 0.502 0.862 !       0.77 eA-3
C116 0.963 0.026 0.207 !       0.76 eA-3
Q117 0.532 0.213 0.390 !       0.76 eA-3
C118 0.391 0.127 0.088 !       0.76 eA-3
C119 0.609 0.123 0.416 !       0.75 eA-3
Q120 0.483 0.094 0.767 !       0.74 eA-3
C121 0.978 0.181 0.256 !       0.72 eA-3
C122 0.529 0.473 0.763 !       0.72 eA-3
Q123 1.000 0.250 0.248 !       0.71 eA-3
C124 0.626 0.128 0.449 !       0.70 eA-3
Q125 0.211 0.433 0.002 !       0.70 eA-3
Q126 0.978 0.191 0.201 !       0.69 eA-3
C127 0.427 0.293 0.087 !       0.69 eA-3
Q128 0.616 0.410 0.021 !       0.69 eA-3
C129 0.966 0.092 0.221 !       0.68 eA-3
Q130 0.782 0.503 0.029 !       0.68 eA-3
Q131 0.038 0.092 0.247 !       0.67 eA-3
Q132 0.958 0.351 0.163 !       0.67 eA-3
Q133 0.188 0.497 0.029 !       0.67 eA-3
C134 0.997 0.091 0.255 !       0.67 eA-3
Q135 0.961 0.154 0.290 !       0.67 eA-3
Q136 1.000 0.344 0.250 !       0.67 eA-3
Q137 0.466 0.476 0.149 !       0.66 eA-3
Q138 0.163 0.404 0.012 !       0.66 eA-3
Q139 0.946 0.371 0.173 !       0.66 eA-3
Q140 0.330 0.371 0.016 !       0.66 eA-3
Q141 0.414 0.438 0.616 !       0.65 eA-3
Q142 0.741 0.470 0.432 !       0.65 eA-3
Q143 0.039 0.312 0.281 !       0.65 eA-3
Q144 0.874 0.287 0.036 !       0.65 eA-3
Q145 0.814 0.432 0.484 !       0.65 eA-3
Q146 0.884 0.463 0.122 !       0.64 eA-3
Q147 0.525 0.069 0.823 !       0.64 eA-3
Q148 0.055 0.213 0.340 !       0.64 eA-3
Q149 0.250 0.500 0.112 !       0.64 eA-3
Q150 0.750 0.500 0.888 !       0.64 eA-3
Q151 0.624 0.129 0.408 !       0.64 eA-3
Q152 0.780 0.434 0.000 !       0.64 eA-3
Q153 0.954 0.193 0.101 !       0.64 eA-3
Q154 0.580 0.148 0.456 !       0.64 eA-3
Q155 0.335 0.323 0.461 !       0.64 eA-3
Q156 0.703 0.158 0.503 !       0.64 eA-3
Q157 0.860 0.031 0.049 !       0.63 eA-3
Q158 0.984 0.398 0.227 !       0.63 eA-3
Q159 0.601 0.063 0.364 !       0.63 eA-3
C160 1.000 0.157 0.247 !       0.63 eA-3
Q161 0.071 0.059 0.333 !       0.63 eA-3
Q162 0.633 0.029 0.430 !       0.63 eA-3
Q163 0.576 0.198 0.345 !       0.63 eA-3
Q164 0.267 0.435 0.041 !       0.62 eA-3
Q165 0.032 0.498 0.828 !       0.62 eA-3
Q166 0.022 0.316 0.220 !       0.62 eA-3
Q167 0.881 0.383 0.111 !       0.62 eA-3
Q168 0.092 0.470 0.914 !       0.61 eA-3
Q169 0.029 0.226 0.210 !       0.61 eA-3
Q170 0.967 0.100 0.190 !       0.61 eA-3
Q171 0.804 0.469 0.990 !       0.61 eA-3
Q172 0.256 0.217 0.596 !       0.61 eA-3
Q173 0.268 0.211 0.957 !       0.61 eA-3
Q174 0.821 0.184 0.087 !       0.61 eA-3
Q175 0.070 0.122 0.443 !       0.60 eA-3
Q176 0.296 0.278 0.001 !       0.60 eA-3
Q177 0.977 0.435 0.712 !       0.60 eA-3
Q178 0.876 0.434 0.537 !       0.60 eA-3
Q179 0.859 0.254 0.000 !       0.60 eA-3
Q180 0.359 0.754 1.000 !       0.60 eA-3
Q181 0.408 0.093 0.045 !       0.60 eA-3
Q182 0.523 0.156 0.859 !       0.59 eA-3
Q183 0.766 0.500 0.918 !       0.59 eA-3
Q184 0.163 0.289 0.488 !       0.59 eA-3
Q185 0.123 0.217 0.400 !       0.59 eA-3
Q186 0.415 0.063 0.077 !       0.59 eA-3
C187 0.579 0.125 0.401 !       0.59 eA-3
Q188 0.942 0.220 0.229 !       0.59 eA-3
Q189 0.656 0.092 0.465 !       0.59 eA-3
Q190 0.725 0.311 0.020 !       0.59 eA-3
Q191 0.532 0.123 0.384 !       0.59 eA-3
Q192 0.877 0.345 0.051 !       0.58 eA-3
Q193 0.767 0.150 0.550 !       0.58 eA-3
Q194 0.736 0.467 0.978 !       0.58 eA-3
Q195 0.324 0.151 0.038 !       0.58 eA-3
Q196 0.695 0.374 0.003 !       0.58 eA-3
Q197 0.843 0.251 0.973 !       0.58 eA-3
Q198 0.070 0.062 0.299 !       0.58 eA-3
Q199 0.940 0.432 0.154 !       0.58 eA-3
)
;
_shelx_fab_checksum     55375
