 
data_m2283abs
# Linda JW Shimon
#Yarden Lavi, David Milstein
 
_audit_creation_method            'SHELXL-2016/4'
_shelx_SHELXL_version_number      '2016/4'
_chemical_name_systematic         ?
_chemical_name_common             ?
_chemical_melting_point           ?
_chemical_formula_moiety          'C47 H43 Ir N P2, B F4 ' 
_chemical_formula_sum
 'C47 H43 B F4 Ir N P2' 
_chemical_formula_weight          962.77

loop_
 _atom_type_symbol
 _atom_type_description
 _atom_type_scat_dispersion_real
 _atom_type_scat_dispersion_imag
 _atom_type_scat_source
 'C'  'C'   0.0181   0.0091
 'International Tables Vol C Tables 4.2.6.8 and 6.1.1.4'
 'H'  'H'   0.0000   0.0000
 'International Tables Vol C Tables 4.2.6.8 and 6.1.1.4'
 'B'  'B'   0.0090   0.0039
 'International Tables Vol C Tables 4.2.6.8 and 6.1.1.4'
 'N'  'N'   0.0311   0.0180
 'International Tables Vol C Tables 4.2.6.8 and 6.1.1.4'
 'F'  'F'   0.0727   0.0534
 'International Tables Vol C Tables 4.2.6.8 and 6.1.1.4'
 'P'  'P'   0.2955   0.4335
 'International Tables Vol C Tables 4.2.6.8 and 6.1.1.4'
 'Ir'  'Ir'  -4.7710   6.5667
 'International Tables Vol C Tables 4.2.6.8 and 6.1.1.4'
 
_space_group_crystal_system       monoclinic
_space_group_IT_number            14
_space_group_name_H-M_alt         'P 21/c'
_space_group_name_Hall            '-P 2ybc'
 
_shelx_space_group_comment
;
The symmetry employed for this shelxl refinement is uniquely defined
by the following loop, which should always be used as a source of
symmetry information in preference to the above space-group names.
They are only intended as comments.
;
 
loop_
 _space_group_symop_operation_xyz
 'x, y, z'
 '-x, y+1/2, -z+1/2'
 '-x, -y, -z'
 'x, -y-1/2, z-1/2'
 
_cell_length_a                    11.1021(2)
_cell_length_b                    16.4585(2)
_cell_length_c                    21.5943(4)
_cell_angle_alpha                 90
_cell_angle_beta                  102.532(2)
_cell_angle_gamma                 90
_cell_volume                      3851.79(11)
_cell_formula_units_Z             4
_cell_measurement_temperature     100(2)
_cell_measurement_reflns_used   24593
_cell_measurement_theta_min     3.4260
_cell_measurement_theta_max     73.7220
 
_exptl_crystal_description        'plate'
_exptl_crystal_colour             'red'
_exptl_crystal_density_meas       ?
_exptl_crystal_density_method     ?
_exptl_crystal_density_diffrn     1.660          
_exptl_crystal_F_000              1920
_exptl_transmission_factor_min    ?
_exptl_transmission_factor_max    ?
_exptl_crystal_size_max           0.200
_exptl_crystal_size_mid           0.150
_exptl_crystal_size_min           0.030
_exptl_absorpt_coefficient_mu     7.957
_shelx_estimated_absorpt_T_min    0.299
_shelx_estimated_absorpt_T_max    0.796
_exptl_absorpt_correction_T_min                     0.660
_exptl_absorpt_correction_T_max                     1.000
_exptl_absorpt_correction_type            gaussian
_exptl_absorpt_process_details
;
CrysAlisPro 1.171.41.111a (Rigaku Oxford Diffraction, 2021)
Numerical absorption correction based on gaussian integration over
a multifaceted crystal model
Empirical absorption correction using spherical harmonics,
implemented in SCALE3 ABSPACK scaling algorithm.
;
_oxdiff_exptl_absorpt_empirical_full_min           0.607
_oxdiff_exptl_absorpt_empirical_full_max           1.694
_oxdiff_exptl_absorpt_empirical_details
;
Empirical correction (ABSPACK) includes:
- Absorption correction using spherical harmonics
- Frame scaling
;
_exptl_absorpt_special_details    ?
_diffrn_ambient_temperature       100(2)
_diffrn_radiation_wavelength      1.54184
_diffrn_radiation_type            CuK\a
_diffrn_source 'Rotating-anode X-ray tube'
_diffrn_source_type 'PhotonJet R (Cu) X-ray Source'
_diffrn_measurement_device_type 'XtaLAB Synergy R, HyPix-Arc 150'
_diffrn_detector 'Hybrid Pixel Array Detector'
_diffrn_detector_type 'HyPix-Arc 150'
_diffrn_measurement_method        '\w scans'
_diffrn_detector_area_resol_mean 10.0000
_diffrn_reflns_number             51653 
_diffrn_reflns_av_R_equivalents   0.0727 
_diffrn_reflns_av_sigmaI/netI     0.0326 


_diffrn_reflns_limit_h_min -13
_diffrn_reflns_limit_h_max 13
_diffrn_reflns_limit_k_min -17
_diffrn_reflns_limit_k_max 20
_diffrn_reflns_limit_l_min -26
_diffrn_reflns_limit_l_max 26
_diffrn_reflns_theta_min          3.407
_diffrn_reflns_theta_max          74.494
_diffrn_reflns_theta_full         67.684
_diffrn_measured_fraction_theta_max   0.995
_diffrn_measured_fraction_theta_full  0.998
_diffrn_reflns_Laue_measured_fraction_max    0.995
_diffrn_reflns_Laue_measured_fraction_full   0.998
_diffrn_reflns_point_group_measured_fraction_max   0.995
_diffrn_reflns_point_group_measured_fraction_full  0.998
_reflns_number_total              7844
_reflns_number_gt                 6861
_reflns_threshold_expression      'I > 2\s(I)'
_reflns_Friedel_coverage          0.000
_reflns_Friedel_fraction_max      .
_reflns_Friedel_fraction_full     .
 
_reflns_special_details
;
 Reflections were merged by SHELXL according to the crystal
 class for the calculation of statistics and refinement.
 
 _reflns_Friedel_fraction is defined as the number of unique
 Friedel pairs measured divided by the number that would be
 possible theoretically, ignoring centric projections and
 systematic absences.
;
 
_computing_data_collection        'CrysAlisPro 1.171.41.111a (Rigaku OD, 2021)'
_computing_cell_refinement        'CrysAlisPro 1.171.41.111a (Rigaku OD, 2021)'
_computing_data_reduction         'CrysAlisPro 1.171.41.111a (Rigaku OD, 2021)'
_computing_structure_solution     'SHELXt-2016/4 (Sheldrick, 2016)'
_computing_structure_refinement   'SHELXL-2016/4 (Sheldrick, 2016)'
_computing_molecular_graphics     'Olex2 (Dolomanov 2016)'
_computing_publication_material   ?
_refine_special_details           ?
_refine_ls_structure_factor_coef  Fsqd
_refine_ls_matrix_type            full
_refine_ls_weighting_scheme       calc
_refine_ls_weighting_details
'w=1/[\s^2^(Fo^2^)+(0.0665P)^2^+5.0519P] where P=(Fo^2^+2Fc^2^)/3'
_atom_sites_solution_primary      ?
_atom_sites_solution_secondary    ?
_atom_sites_solution_hydrogens    geom
_refine_ls_hydrogen_treatment     constr
_refine_ls_extinction_method      none
_refine_ls_extinction_coef        .
_refine_ls_number_reflns          7844
_refine_ls_number_parameters      505
_refine_ls_number_restraints      0
_refine_ls_R_factor_all           0.0449
_refine_ls_R_factor_gt            0.0390
_refine_ls_wR_factor_ref          0.1069
_refine_ls_wR_factor_gt           0.1033
_refine_ls_goodness_of_fit_ref    1.000
_refine_ls_restrained_S_all       1.000
_refine_ls_shift/su_max           0.001
_refine_ls_shift/su_mean          0.000
 
loop_
 _atom_site_label
 _atom_site_type_symbol
 _atom_site_fract_x
 _atom_site_fract_y
 _atom_site_fract_z
 _atom_site_U_iso_or_equiv
 _atom_site_adp_type
 _atom_site_occupancy
 _atom_site_site_symmetry_order  
 _atom_site_calc_flag
 _atom_site_refinement_flags_posn
 _atom_site_refinement_flags_adp
 _atom_site_refinement_flags_occupancy
 _atom_site_disorder_assembly
 _atom_site_disorder_group
IR1 Ir 0.13533(2) 0.72505(2) 0.44259(2) 0.03811(8) Uani 1 1 d . . . . .
P1 P 0.30046(11) 0.78746(6) 0.40834(5) 0.0374(2) Uani 1 1 d . . . . .
P2 P 0.20696(10) 0.75951(7) 0.54836(5) 0.0352(2) Uani 1 1 d . . . . .
N1 N 0.3336(3) 0.6247(2) 0.46187(16) 0.0376(7) Uani 1 1 d . . . . .
C1 C 0.3494(5) 0.7219(2) 0.3487(2) 0.0415(10) Uani 1 1 d . . . . .
H1A H 0.304128 0.740464 0.306403 0.050 Uiso 1 1 calc R U . . .
H1B H 0.437885 0.732985 0.351005 0.050 Uiso 1 1 calc R U . . .
C2 C 0.3345(4) 0.6307(3) 0.3505(2) 0.0393(9) Uani 1 1 d . . . . .
C3 C 0.3257(4) 0.5899(3) 0.2941(2) 0.0443(10) Uani 1 1 d . . . . .
H3 H 0.327578 0.620239 0.256950 0.053 Uiso 1 1 calc R U . . .
C4 C 0.3139(5) 0.5041(3) 0.2893(2) 0.0502(11) Uani 1 1 d . . . . .
H4 H 0.306523 0.478130 0.249403 0.060 Uiso 1 1 calc R U . . .
C5 C 0.3133(4) 0.4594(3) 0.3419(2) 0.0457(10) Uani 1 1 d . . . . .
H5 H 0.306687 0.401937 0.339011 0.055 Uiso 1 1 calc R U . . .
C6 C 0.3226(4) 0.4985(3) 0.4014(2) 0.0410(9) Uani 1 1 d . . . . .
C7 C 0.3301(4) 0.5853(3) 0.40612(19) 0.0383(9) Uani 1 1 d . . . . .
C8 C 0.3257(4) 0.4548(3) 0.4563(2) 0.0435(10) Uani 1 1 d . . . . .
H8 H 0.318823 0.397247 0.454154 0.052 Uiso 1 1 calc R U . . .
C9 C 0.3389(4) 0.4935(3) 0.5151(2) 0.0408(9) Uani 1 1 d . . . . .
C10 C 0.3508(4) 0.4494(3) 0.5731(2) 0.0445(10) Uani 1 1 d . . . . .
H10 H 0.344443 0.391829 0.572095 0.053 Uiso 1 1 calc R U . . .
C11 C 0.3710(4) 0.4886(3) 0.6291(2) 0.0461(10) Uani 1 1 d . . . . .
H11 H 0.382233 0.458702 0.667538 0.055 Uiso 1 1 calc R U . . .
C12 C 0.3754(4) 0.5749(3) 0.6305(2) 0.0421(9) Uani 1 1 d . . . . .
H12 H 0.390813 0.601752 0.670431 0.050 Uiso 1 1 calc R U . . .
C13 C 0.3582(4) 0.6208(2) 0.5763(2) 0.0359(8) Uani 1 1 d . . . . .
C14 C 0.3415(4) 0.5804(3) 0.5159(2) 0.0382(9) Uani 1 1 d . . . . .
C15 C 0.3572(4) 0.7120(2) 0.5817(2) 0.0351(8) Uani 1 1 d . . . . .
H15A H 0.419340 0.734545 0.559743 0.042 Uiso 1 1 calc R U . . .
H15B H 0.382563 0.726972 0.627053 0.042 Uiso 1 1 calc R U . . .
C16 C 0.2717(4) 0.8839(3) 0.36463(19) 0.0420(9) Uani 1 1 d . . . . .
C17 C 0.3572(4) 0.9114(3) 0.3300(2) 0.0434(10) Uani 1 1 d . . . . .
H17 H 0.428146 0.879878 0.328354 0.052 Uiso 1 1 calc R U . . .
C18 C 0.3368(5) 0.9851(3) 0.2981(2) 0.0479(11) Uani 1 1 d . . . . .
H18 H 0.394583 1.003832 0.274629 0.057 Uiso 1 1 calc R U . . .
C19 C 0.2343(5) 1.0316(3) 0.2998(2) 0.0518(11) Uani 1 1 d . . . . .
H19 H 0.222402 1.082299 0.278264 0.062 Uiso 1 1 calc R U . . .
C20 C 0.1487(5) 1.0042(3) 0.3332(2) 0.0546(12) Uani 1 1 d . . . . .
H20 H 0.076681 1.035137 0.333554 0.065 Uiso 1 1 calc R U . . .
C21 C 0.1690(5) 0.9306(3) 0.3662(2) 0.0503(11) Uani 1 1 d . . . . .
H21 H 0.111469 0.912564 0.389972 0.060 Uiso 1 1 calc R U . . .
C22 C 0.4467(4) 0.8125(3) 0.46315(19) 0.0367(8) Uani 1 1 d . . . . .
C23 C 0.5460(4) 0.7586(3) 0.4743(2) 0.0420(10) Uani 1 1 d . . . . .
H23 H 0.540250 0.709165 0.451225 0.050 Uiso 1 1 calc R U . . .
C24 C 0.6529(4) 0.7763(3) 0.5186(2) 0.0448(11) Uani 1 1 d . . . . .
H24 H 0.719693 0.738929 0.525616 0.054 Uiso 1 1 calc R U . . .
C25 C 0.6629(4) 0.8474(3) 0.5526(2) 0.0474(10) Uani 1 1 d . . . . .
H25 H 0.735679 0.858982 0.583604 0.057 Uiso 1 1 calc R U . . .
C26 C 0.5657(4) 0.9021(3) 0.5412(2) 0.0414(9) Uani 1 1 d . . . . .
H26 H 0.572594 0.951520 0.564505 0.050 Uiso 1 1 calc R U . . .
C27 C 0.4585(4) 0.8859(3) 0.49634(19) 0.0380(9) Uani 1 1 d . . . . .
H27 H 0.393429 0.924608 0.488235 0.046 Uiso 1 1 calc R U . . .
C28 C 0.1099(4) 0.7343(3) 0.6050(2) 0.0364(9) Uani 1 1 d . . . . .
C29 C 0.0398(5) 0.7940(3) 0.6268(2) 0.0479(11) Uani 1 1 d . . . . .
H29 H 0.045897 0.848829 0.613955 0.058 Uiso 1 1 calc R U . . .
C30 C -0.0384(5) 0.7750(3) 0.6667(2) 0.0507(12) Uani 1 1 d . . . . .
H30 H -0.085381 0.816686 0.680578 0.061 Uiso 1 1 calc R U . . .
C31 C -0.0489(4) 0.6956(3) 0.6865(2) 0.0464(10) Uani 1 1 d . . . . .
H31 H -0.103173 0.682426 0.713500 0.056 Uiso 1 1 calc R U . . .
C32 C 0.0210(5) 0.6363(3) 0.6662(2) 0.0515(11) Uani 1 1 d . . . . .
H32 H 0.016355 0.581845 0.680127 0.062 Uiso 1 1 calc R U . . .
C33 C 0.0987(4) 0.6553(3) 0.6255(2) 0.0457(10) Uani 1 1 d . . . . .
H33 H 0.144932 0.613213 0.611427 0.055 Uiso 1 1 calc R U . . .
C34 C 0.2334(4) 0.8681(2) 0.56458(19) 0.0368(9) Uani 1 1 d . . . . .
C35 C 0.1575(4) 0.9235(3) 0.5252(2) 0.0407(9) Uani 1 1 d . . . . .
H35 H 0.093282 0.904402 0.491870 0.049 Uiso 1 1 calc R U . . .
C36 C 0.1761(4) 1.0063(3) 0.5348(2) 0.0485(11) Uani 1 1 d . . . . .
H36 H 0.125577 1.043881 0.507378 0.058 Uiso 1 1 calc R U . . .
C37 C 0.2680(5) 1.0343(3) 0.5841(2) 0.0499(11) Uani 1 1 d . . . . .
H37 H 0.281548 1.090990 0.590163 0.060 Uiso 1 1 calc R U . . .
C38 C 0.3395(4) 0.9799(3) 0.6244(2) 0.0443(10) Uani 1 1 d . . . . .
H38 H 0.400828 0.999489 0.658887 0.053 Uiso 1 1 calc R U . . .
C39 C 0.3235(4) 0.8964(3) 0.6153(2) 0.0389(9) Uani 1 1 d . . . . .
H39 H 0.373506 0.859277 0.643284 0.047 Uiso 1 1 calc R U . . .
C40 C 0.0080(4) 0.6360(3) 0.4652(2) 0.0473(10) Uani 1 1 d . . . . .
H40 H 0.031775 0.615290 0.509706 0.057 Uiso 1 1 calc R U . . .
C41 C -0.0502(4) 0.7118(3) 0.4602(2) 0.0428(10) Uani 1 1 d . . . . .
H41 H -0.058632 0.734507 0.502047 0.051 Uiso 1 1 calc R U . . .
C42 C -0.1538(4) 0.7376(3) 0.4052(2) 0.0441(10) Uani 1 1 d . . . . .
H42A H -0.196602 0.688752 0.384523 0.053 Uiso 1 1 calc R U . . .
H42B H -0.214606 0.770657 0.421566 0.053 Uiso 1 1 calc R U . . .
C43 C -0.1040(5) 0.7869(3) 0.3565(2) 0.0518(12) Uani 1 1 d . . . . .
H43A H -0.162433 0.783503 0.314867 0.062 Uiso 1 1 calc R U . . .
H43B H -0.096775 0.844620 0.369627 0.062 Uiso 1 1 calc R U . . .
C44 C 0.0216(5) 0.7554(4) 0.3503(2) 0.0524(12) Uani 1 1 d . . . . .
H44 H 0.064092 0.792504 0.325179 0.063 Uiso 1 1 calc R U . . .
C45 C 0.0558(4) 0.6775(4) 0.3476(2) 0.0537(12) Uani 1 1 d . . . . .
H45 H 0.118457 0.669218 0.321228 0.064 Uiso 1 1 calc R U . . .
C46 C -0.0269(5) 0.6033(4) 0.3487(2) 0.0592(13) Uani 1 1 d . . . . .
H46A H -0.003979 0.560364 0.321252 0.071 Uiso 1 1 calc R U . . .
H46B H -0.113781 0.618648 0.331041 0.071 Uiso 1 1 calc R U . . .
C47 C -0.0154(5) 0.5696(3) 0.4161(2) 0.0529(12) Uani 1 1 d . . . . .
H47A H -0.092451 0.540712 0.418595 0.063 Uiso 1 1 calc R U . . .
H47B H 0.053147 0.529911 0.425303 0.063 Uiso 1 1 calc R U . . .
F1 F 0.6025(3) 0.6893(2) 0.79984(18) 0.0717(9) Uani 1 1 d . . . . .
F2 F 0.4642(3) 0.7581(2) 0.72632(13) 0.0576(7) Uani 1 1 d . . . . .
F3 F 0.6588(3) 0.7354(2) 0.71118(18) 0.0768(10) Uani 1 1 d . . . . .
F4 F 0.6269(3) 0.82388(19) 0.78560(16) 0.0694(8) Uani 1 1 d . . . . .
B1 B 0.5893(5) 0.7521(4) 0.7560(3) 0.0453(11) Uani 1 1 d . . . . .
 
loop_
 _atom_site_aniso_label
 _atom_site_aniso_U_11
 _atom_site_aniso_U_22
 _atom_site_aniso_U_33
 _atom_site_aniso_U_23
 _atom_site_aniso_U_13
 _atom_site_aniso_U_12
IR1 0.03661(12) 0.04401(12) 0.03563(11) -0.00020(7) 0.01207(8) -0.00035(7)
P1 0.0413(6) 0.0387(5) 0.0352(5) 0.0011(4) 0.0152(4) 0.0001(4)
P2 0.0342(5) 0.0375(5) 0.0369(5) 0.0014(4) 0.0140(4) -0.0012(4)
N1 0.0404(18) 0.0367(18) 0.0400(18) -0.0001(14) 0.0182(14) 0.0011(15)
C1 0.050(3) 0.042(2) 0.038(2) -0.0005(17) 0.0208(19) -0.0009(19)
C2 0.034(2) 0.043(2) 0.044(2) -0.0040(18) 0.0152(17) -0.0027(18)
C3 0.050(2) 0.048(2) 0.039(2) -0.0067(19) 0.0188(18) -0.008(2)
C4 0.058(3) 0.050(3) 0.047(2) -0.011(2) 0.021(2) -0.010(2)
C5 0.045(2) 0.042(2) 0.054(3) -0.009(2) 0.020(2) -0.005(2)
C6 0.038(2) 0.040(2) 0.049(2) -0.0058(18) 0.0195(18) -0.0050(18)
C7 0.037(2) 0.041(2) 0.041(2) -0.0034(18) 0.0163(17) -0.0046(18)
C8 0.042(2) 0.038(2) 0.057(3) -0.004(2) 0.025(2) -0.0048(19)
C9 0.040(2) 0.039(2) 0.049(2) -0.0019(18) 0.0227(19) -0.0011(18)
C10 0.050(3) 0.036(2) 0.055(2) 0.0070(19) 0.028(2) 0.0029(19)
C11 0.047(2) 0.047(2) 0.051(2) 0.009(2) 0.023(2) 0.002(2)
C12 0.043(2) 0.046(2) 0.042(2) 0.0045(19) 0.0189(18) 0.006(2)
C13 0.034(2) 0.033(2) 0.044(2) 0.0015(17) 0.0159(16) 0.0024(16)
C14 0.036(2) 0.039(2) 0.044(2) 0.0025(18) 0.0197(17) 0.0011(18)
C15 0.037(2) 0.035(2) 0.036(2) -0.0002(16) 0.0143(16) 0.0026(16)
C16 0.048(2) 0.045(2) 0.035(2) 0.0020(18) 0.0129(18) 0.000(2)
C17 0.046(2) 0.045(2) 0.039(2) 0.0005(18) 0.0100(18) -0.004(2)
C18 0.050(3) 0.055(3) 0.041(2) 0.007(2) 0.0133(19) -0.004(2)
C19 0.065(3) 0.049(3) 0.040(2) 0.009(2) 0.010(2) 0.000(2)
C20 0.064(3) 0.052(3) 0.050(3) 0.005(2) 0.016(2) 0.012(2)
C21 0.060(3) 0.052(3) 0.043(2) 0.006(2) 0.021(2) 0.004(2)
C22 0.037(2) 0.039(2) 0.038(2) 0.0037(17) 0.0177(16) -0.0029(18)
C23 0.038(2) 0.042(2) 0.050(2) 0.0019(19) 0.0205(19) -0.0003(19)
C24 0.039(2) 0.043(2) 0.056(3) 0.011(2) 0.020(2) 0.0046(19)
C25 0.040(2) 0.057(3) 0.047(2) 0.007(2) 0.0139(19) -0.004(2)
C26 0.045(2) 0.040(2) 0.043(2) 0.0003(18) 0.0176(18) -0.0042(19)
C27 0.040(2) 0.040(2) 0.038(2) 0.0021(17) 0.0162(17) -0.0001(18)
C28 0.031(2) 0.044(2) 0.036(2) -0.0006(17) 0.0129(16) -0.0015(17)
C29 0.060(3) 0.043(2) 0.047(2) 0.003(2) 0.026(2) 0.006(2)
C30 0.057(3) 0.054(3) 0.050(3) 0.001(2) 0.030(2) 0.008(2)
C31 0.044(2) 0.058(3) 0.042(2) 0.000(2) 0.0213(19) -0.006(2)
C32 0.057(3) 0.045(2) 0.061(3) 0.007(2) 0.030(2) -0.001(2)
C33 0.048(2) 0.042(2) 0.054(3) 0.004(2) 0.025(2) -0.004(2)
C34 0.041(2) 0.034(2) 0.040(2) 0.0018(16) 0.0202(17) 0.0006(17)
C35 0.038(2) 0.043(2) 0.045(2) 0.0026(18) 0.0158(18) 0.0031(18)
C36 0.047(3) 0.045(2) 0.058(3) 0.008(2) 0.022(2) 0.005(2)
C37 0.054(3) 0.037(2) 0.067(3) 0.000(2) 0.030(2) -0.005(2)
C38 0.045(2) 0.046(2) 0.047(2) -0.006(2) 0.0207(19) -0.005(2)
C39 0.038(2) 0.040(2) 0.042(2) 0.0006(17) 0.0166(17) 0.0020(18)
C40 0.044(2) 0.051(3) 0.044(2) 0.002(2) 0.0047(19) -0.009(2)
C41 0.038(2) 0.051(3) 0.042(2) 0.0048(19) 0.0139(18) -0.0019(19)
C42 0.036(2) 0.054(3) 0.043(2) 0.005(2) 0.0102(18) -0.001(2)
C43 0.040(2) 0.071(3) 0.044(2) 0.012(2) 0.0082(19) 0.002(2)
C44 0.044(3) 0.080(3) 0.035(2) 0.009(2) 0.0139(19) -0.007(3)
C45 0.042(2) 0.077(4) 0.042(2) -0.005(2) 0.0101(19) -0.003(3)
C46 0.050(3) 0.070(3) 0.055(3) -0.015(3) 0.004(2) 0.008(3)
C47 0.047(3) 0.045(3) 0.064(3) -0.006(2) 0.007(2) -0.004(2)
F1 0.0421(15) 0.078(2) 0.093(2) 0.0315(19) 0.0102(15) -0.0015(15)
F2 0.0460(16) 0.082(2) 0.0445(15) -0.0045(14) 0.0089(12) 0.0134(15)
F3 0.063(2) 0.108(3) 0.068(2) -0.0127(19) 0.0323(17) 0.0178(19)
F4 0.074(2) 0.0492(17) 0.079(2) -0.0141(15) 0.0040(17) 0.0039(16)
B1 0.042(3) 0.047(3) 0.049(3) -0.003(2) 0.016(2) 0.001(2)
 
_geom_special_details
;
 All esds (except the esd in the dihedral angle between two l.s. planes)
 are estimated using the full covariance matrix.  The cell esds are taken
 into account individually in the estimation of esds in distances, angles
 and torsion angles; correlations between esds in cell parameters are only
 used when they are defined by crystal symmetry.  An approximate (isotropic)
 treatment of cell esds is used for estimating esds involving l.s. planes.
;
 
loop_
 _geom_bond_atom_site_label_1
 _geom_bond_atom_site_label_2
 _geom_bond_distance
 _geom_bond_site_symmetry_2
 _geom_bond_publ_flag
IR1 C40 2.164(5) . ?
IR1 C44 2.173(5) . ?
IR1 C41 2.185(4) . ?
IR1 C45 2.194(5) . ?
IR1 P2 2.3201(11) . ?
IR1 P1 2.3563(11) . ?
P1 C22 1.837(4) . ?
P1 C16 1.839(5) . ?
P1 C1 1.850(4) . ?
P2 C34 1.832(4) . ?
P2 C15 1.842(4) . ?
P2 C28 1.845(4) . ?
N1 C7 1.361(5) . ?
N1 C14 1.362(5) . ?
C1 C2 1.511(6) . ?
C2 C3 1.376(6) . ?
C2 C7 1.425(6) . ?
C3 C4 1.419(7) . ?
C4 C5 1.354(7) . ?
C5 C6 1.420(6) . ?
C6 C8 1.381(6) . ?
C6 C7 1.434(6) . ?
C8 C9 1.400(6) . ?
C9 C10 1.429(6) . ?
C9 C14 1.429(6) . ?
C10 C11 1.346(7) . ?
C11 C12 1.422(7) . ?
C12 C13 1.371(6) . ?
C13 C14 1.441(6) . ?
C13 C15 1.505(6) . ?
C16 C21 1.382(7) . ?
C16 C17 1.405(6) . ?
C17 C18 1.390(6) . ?
C18 C19 1.379(7) . ?
C19 C20 1.387(7) . ?
C20 C21 1.398(7) . ?
C22 C23 1.394(6) . ?
C22 C27 1.397(6) . ?
C23 C24 1.383(7) . ?
C24 C25 1.373(7) . ?
C25 C26 1.386(6) . ?
C26 C27 1.388(6) . ?
C28 C33 1.388(6) . ?
C28 C29 1.397(6) . ?
C29 C30 1.385(6) . ?
C30 C31 1.388(7) . ?
C31 C32 1.376(7) . ?
C32 C33 1.394(6) . ?
C34 C39 1.393(6) . ?
C34 C35 1.397(6) . ?
C35 C36 1.387(7) . ?
C36 C37 1.385(7) . ?
C37 C38 1.374(7) . ?
C38 C39 1.394(6) . ?
C40 C41 1.398(7) . ?
C40 C47 1.505(7) . ?
C41 C42 1.525(6) . ?
C42 C43 1.522(6) . ?
C43 C44 1.521(7) . ?
C44 C45 1.342(8) . ?
C45 C46 1.530(8) . ?
C46 C47 1.538(7) . ?
F1 B1 1.389(7) . ?
F2 B1 1.401(6) . ?
F3 B1 1.390(6) . ?
F4 B1 1.365(7) . ?
 
loop_
 _geom_angle_atom_site_label_1
 _geom_angle_atom_site_label_2
 _geom_angle_atom_site_label_3
 _geom_angle
 _geom_angle_site_symmetry_1
 _geom_angle_site_symmetry_3
 _geom_angle_publ_flag
C40 IR1 C44 94.86(19) . . ?
C40 IR1 C41 37.50(18) . . ?
C44 IR1 C41 78.53(18) . . ?
C40 IR1 C45 79.57(19) . . ?
C44 IR1 C45 35.8(2) . . ?
C41 IR1 C45 85.64(18) . . ?
C40 IR1 P2 92.57(13) . . ?
C44 IR1 P2 148.59(16) . . ?
C41 IR1 P2 89.28(13) . . ?
C45 IR1 P2 171.91(15) . . ?
C40 IR1 P1 163.09(14) . . ?
C44 IR1 P1 87.04(13) . . ?
C41 IR1 P1 157.70(12) . . ?
C45 IR1 P1 92.57(13) . . ?
P2 IR1 P1 94.51(4) . . ?
C22 P1 C16 99.7(2) . . ?
C22 P1 C1 103.2(2) . . ?
C16 P1 C1 100.99(19) . . ?
C22 P1 IR1 122.32(13) . . ?
C16 P1 IR1 118.51(15) . . ?
C1 P1 IR1 109.28(15) . . ?
C34 P2 C15 104.22(19) . . ?
C34 P2 C28 100.65(18) . . ?
C15 P2 C28 104.79(19) . . ?
C34 P2 IR1 115.66(14) . . ?
C15 P2 IR1 111.64(13) . . ?
C28 P2 IR1 118.25(14) . . ?
C7 N1 C14 119.0(4) . . ?
C2 C1 P1 120.7(3) . . ?
C3 C2 C7 118.7(4) . . ?
C3 C2 C1 116.7(4) . . ?
C7 C2 C1 124.6(4) . . ?
C2 C3 C4 122.6(4) . . ?
C5 C4 C3 119.7(4) . . ?
C4 C5 C6 120.0(4) . . ?
C8 C6 C5 121.6(4) . . ?
C8 C6 C7 117.9(4) . . ?
C5 C6 C7 120.5(4) . . ?
N1 C7 C2 119.7(4) . . ?
N1 C7 C6 121.9(4) . . ?
C2 C7 C6 118.4(4) . . ?
C6 C8 C9 121.3(4) . . ?
C8 C9 C10 122.3(4) . . ?
C8 C9 C14 117.7(4) . . ?
C10 C9 C14 120.0(4) . . ?
C11 C10 C9 120.6(4) . . ?
C10 C11 C12 119.8(4) . . ?
C13 C12 C11 122.3(4) . . ?
C12 C13 C14 119.1(4) . . ?
C12 C13 C15 119.0(4) . . ?
C14 C13 C15 121.9(4) . . ?
N1 C14 C9 121.9(4) . . ?
N1 C14 C13 120.0(4) . . ?
C9 C14 C13 118.1(4) . . ?
C13 C15 P2 114.5(3) . . ?
C21 C16 C17 119.3(4) . . ?
C21 C16 P1 121.3(3) . . ?
C17 C16 P1 119.3(3) . . ?
C18 C17 C16 119.3(4) . . ?
C19 C18 C17 121.2(4) . . ?
C18 C19 C20 119.7(5) . . ?
C19 C20 C21 119.6(5) . . ?
C16 C21 C20 120.8(4) . . ?
C23 C22 C27 118.6(4) . . ?
C23 C22 P1 121.6(3) . . ?
C27 C22 P1 119.7(3) . . ?
C24 C23 C22 120.9(4) . . ?
C25 C24 C23 120.4(4) . . ?
C24 C25 C26 119.3(4) . . ?
C25 C26 C27 121.0(4) . . ?
C26 C27 C22 119.7(4) . . ?
C33 C28 C29 117.3(4) . . ?
C33 C28 P2 121.8(3) . . ?
C29 C28 P2 120.9(3) . . ?
C30 C29 C28 121.3(4) . . ?
C29 C30 C31 120.8(4) . . ?
C32 C31 C30 118.6(4) . . ?
C31 C32 C33 120.7(4) . . ?
C28 C33 C32 121.4(4) . . ?
C39 C34 C35 119.6(4) . . ?
C39 C34 P2 122.3(3) . . ?
C35 C34 P2 118.0(3) . . ?
C36 C35 C34 120.0(4) . . ?
C37 C36 C35 120.1(5) . . ?
C38 C37 C36 119.9(4) . . ?
C37 C38 C39 120.9(4) . . ?
C34 C39 C38 119.3(4) . . ?
C41 C40 C47 126.0(4) . . ?
C41 C40 IR1 72.1(3) . . ?
C47 C40 IR1 110.8(3) . . ?
C40 C41 C42 124.5(4) . . ?
C40 C41 IR1 70.4(3) . . ?
C42 C41 IR1 114.6(3) . . ?
C43 C42 C41 111.2(4) . . ?
C44 C43 C42 110.9(4) . . ?
C45 C44 C43 127.0(5) . . ?
C45 C44 IR1 72.9(3) . . ?
C43 C44 IR1 111.0(3) . . ?
C44 C45 C46 125.9(5) . . ?
C44 C45 IR1 71.3(3) . . ?
C46 C45 IR1 113.1(3) . . ?
C45 C46 C47 112.0(4) . . ?
C40 C47 C46 111.8(4) . . ?
F4 B1 F1 110.4(5) . . ?
F4 B1 F3 109.8(5) . . ?
F1 B1 F3 109.6(5) . . ?
F4 B1 F2 109.0(4) . . ?
F1 B1 F2 108.1(4) . . ?
F3 B1 F2 109.9(4) . . ?
 
_refine_diff_density_max    1.454
_refine_diff_density_min   -0.894
_refine_diff_density_rms    0.109

_shelx_res_file
;
TITL m2283_a.res in P2(1)/c
 m2283abs.res created by SHELXL-2016/4 at 14:16:31 on 12-Jul-2021
REM Old TITL m2283 in P2/c
REM SHELXT solution in P2(1)/c: R1 0.094, Rweak 0.019, Alpha 0.037
REM <I/s> 0.939 for 290 systematic absences, Orientation as input
REM Formula found by SHELXT: C45 B N3 F4 P2 Ir
rem yarden
rem red plate
CELL 1.54184 11.1021 16.4585 21.5943 90 102.532 90
ZERR 4 0.0002 0.0002 0.0004 0 0.002 0
LATT 1
SYMM -X,0.5+Y,0.5-Z
SFAC C H B N F P Ir
UNIT 188 172 4 4 16 8 4

L.S. 8 0 0
PLAN  1
SIZE 0.03 0.15 0.2
TEMP -173
BOND
list 4
fmap 2 53
ACTA
OMIT -5 1 3
OMIT -2 10 2
OMIT 2 10 0
OMIT 2 6 0
OMIT -4 10 2
OMIT -3 11 2
OMIT 1 8 0
OMIT -4 11 2
OMIT -5 3 3
OMIT -8 5 3
REM <olex2.extras>
REM <HklSrc "%./m2283.hkl">
REM </olex2.extras>

WGHT    0.066500    5.051900
FVAR       0.99456
IR1   7    0.135331    0.725047    0.442595    11.00000    0.03661    0.04401 =
         0.03563   -0.00020    0.01207   -0.00035
P1    6    0.300464    0.787461    0.408336    11.00000    0.04128    0.03875 =
         0.03523    0.00106    0.01515    0.00011
P2    6    0.206963    0.759507    0.548365    11.00000    0.03415    0.03746 =
         0.03688    0.00144    0.01403   -0.00123
N1    4    0.333590    0.624730    0.461869    11.00000    0.04040    0.03671 =
         0.04001   -0.00007    0.01817    0.00107
C1    1    0.349375    0.721873    0.348671    11.00000    0.04993    0.04170 =
         0.03805   -0.00046    0.02076   -0.00088
AFIX  23
H1A   2    0.304128    0.740464    0.306403    11.00000   -1.20000
H1B   2    0.437885    0.732985    0.351005    11.00000   -1.20000
AFIX   0
C2    1    0.334537    0.630706    0.350514    11.00000    0.03444    0.04267 =
         0.04392   -0.00402    0.01521   -0.00270
C3    1    0.325716    0.589857    0.294136    11.00000    0.04956    0.04837 =
         0.03921   -0.00671    0.01884   -0.00760
AFIX  43
H3    2    0.327578    0.620239    0.256950    11.00000   -1.20000
AFIX   0
C4    1    0.313941    0.504091    0.289346    11.00000    0.05825    0.05013 =
         0.04667   -0.01132    0.02121   -0.01002
AFIX  43
H4    2    0.306523    0.478130    0.249403    11.00000   -1.20000
AFIX   0
C5    1    0.313322    0.459422    0.341921    11.00000    0.04544    0.04186 =
         0.05407   -0.00937    0.02029   -0.00455
AFIX  43
H5    2    0.306687    0.401937    0.339011    11.00000   -1.20000
AFIX   0
C6    1    0.322586    0.498459    0.401410    11.00000    0.03840    0.04031 =
         0.04892   -0.00578    0.01951   -0.00500
C7    1    0.330077    0.585274    0.406124    11.00000    0.03693    0.04075 =
         0.04088   -0.00342    0.01628   -0.00461
C8    1    0.325729    0.454759    0.456312    11.00000    0.04154    0.03804 =
         0.05748   -0.00424    0.02521   -0.00477
AFIX  43
H8    2    0.318823    0.397247    0.454154    11.00000   -1.20000
AFIX   0
C9    1    0.338889    0.493534    0.515083    11.00000    0.04004    0.03940 =
         0.04895   -0.00190    0.02267   -0.00114
C10   1    0.350812    0.449396    0.573074    11.00000    0.04956    0.03632 =
         0.05513    0.00697    0.02796    0.00288
AFIX  43
H10   2    0.344443    0.391829    0.572095    11.00000   -1.20000
AFIX   0
C11   1    0.370985    0.488620    0.629087    11.00000    0.04664    0.04662 =
         0.05079    0.00913    0.02335    0.00200
AFIX  43
H11   2    0.382233    0.458702    0.667538    11.00000   -1.20000
AFIX   0
C12   1    0.375408    0.574932    0.630532    11.00000    0.04311    0.04556 =
         0.04195    0.00449    0.01889    0.00552
AFIX  43
H12   2    0.390813    0.601752    0.670431    11.00000   -1.20000
AFIX   0
C13   1    0.358203    0.620815    0.576311    11.00000    0.03407    0.03349 =
         0.04352    0.00154    0.01592    0.00243
C14   1    0.341516    0.580361    0.515869    11.00000    0.03597    0.03922 =
         0.04434    0.00250    0.01973    0.00108
C15   1    0.357217    0.711975    0.581689    11.00000    0.03740    0.03464 =
         0.03625   -0.00021    0.01427    0.00260
AFIX  23
H15A  2    0.419340    0.734545    0.559743    11.00000   -1.20000
H15B  2    0.382563    0.726972    0.627053    11.00000   -1.20000
AFIX   0
C16   1    0.271728    0.883882    0.364634    11.00000    0.04840    0.04468 =
         0.03468    0.00196    0.01286    0.00002
C17   1    0.357184    0.911372    0.329970    11.00000    0.04608    0.04549 =
         0.03884    0.00049    0.00998   -0.00414
AFIX  43
H17   2    0.428146    0.879878    0.328354    11.00000   -1.20000
AFIX   0
C18   1    0.336839    0.985132    0.298060    11.00000    0.04951    0.05486 =
         0.04080    0.00688    0.01329   -0.00403
AFIX  43
H18   2    0.394583    1.003832    0.274629    11.00000   -1.20000
AFIX   0
C19   1    0.234335    1.031639    0.299811    11.00000    0.06549    0.04912 =
         0.04003    0.00857    0.00979    0.00050
AFIX  43
H19   2    0.222402    1.082299    0.278264    11.00000   -1.20000
AFIX   0
C20   1    0.148711    1.004158    0.333158    11.00000    0.06396    0.05184 =
         0.04966    0.00545    0.01611    0.01198
AFIX  43
H20   2    0.076681    1.035137    0.333554    11.00000   -1.20000
AFIX   0
C21   1    0.168991    0.930625    0.366181    11.00000    0.06026    0.05241 =
         0.04275    0.00566    0.02117    0.00409
AFIX  43
H21   2    0.111469    0.912564    0.389972    11.00000   -1.20000
AFIX   0
C22   1    0.446715    0.812488    0.463149    11.00000    0.03701    0.03938 =
         0.03800    0.00373    0.01768   -0.00289
C23   1    0.546023    0.758641    0.474342    11.00000    0.03845    0.04229 =
         0.05023    0.00186    0.02045   -0.00033
AFIX  43
H23   2    0.540250    0.709165    0.451225    11.00000   -1.20000
AFIX   0
C24   1    0.652853    0.776268    0.518647    11.00000    0.03938    0.04331 =
         0.05623    0.01127    0.02003    0.00459
AFIX  43
H24   2    0.719693    0.738929    0.525616    11.00000   -1.20000
AFIX   0
C25   1    0.662883    0.847407    0.552617    11.00000    0.04032    0.05708 =
         0.04678    0.00682    0.01395   -0.00392
AFIX  43
H25   2    0.735679    0.858982    0.583604    11.00000   -1.20000
AFIX   0
C26   1    0.565714    0.902135    0.541227    11.00000    0.04504    0.04035 =
         0.04252    0.00029    0.01765   -0.00420
AFIX  43
H26   2    0.572594    0.951520    0.564505    11.00000   -1.20000
AFIX   0
C27   1    0.458483    0.885937    0.496340    11.00000    0.03995    0.03966 =
         0.03803    0.00211    0.01616   -0.00012
AFIX  43
H27   2    0.393429    0.924608    0.488235    11.00000   -1.20000
AFIX   0
C28   1    0.109882    0.734309    0.605043    11.00000    0.03128    0.04446 =
         0.03600   -0.00056    0.01287   -0.00150
C29   1    0.039810    0.794038    0.626774    11.00000    0.06028    0.04319 =
         0.04705    0.00298    0.02635    0.00636
AFIX  43
H29   2    0.045897    0.848829    0.613955    11.00000   -1.20000
AFIX   0
C30   1   -0.038388    0.774953    0.666651    11.00000    0.05655    0.05371 =
         0.05004    0.00123    0.02987    0.00842
AFIX  43
H30   2   -0.085381    0.816686    0.680578    11.00000   -1.20000
AFIX   0
C31   1   -0.048885    0.695564    0.686499    11.00000    0.04420    0.05839 =
         0.04196   -0.00040    0.02128   -0.00595
AFIX  43
H31   2   -0.103173    0.682426    0.713500    11.00000   -1.20000
AFIX   0
C32   1    0.021045    0.636285    0.666220    11.00000    0.05683    0.04488 =
         0.06079    0.00673    0.03033   -0.00130
AFIX  43
H32   2    0.016355    0.581845    0.680127    11.00000   -1.20000
AFIX   0
C33   1    0.098693    0.655270    0.625489    11.00000    0.04753    0.04155 =
         0.05432    0.00417    0.02482   -0.00446
AFIX  43
H33   2    0.144932    0.613213    0.611427    11.00000   -1.20000
AFIX   0
C34   1    0.233390    0.868074    0.564576    11.00000    0.04149    0.03440 =
         0.03974    0.00182    0.02017    0.00063
C35   1    0.157542    0.923466    0.525196    11.00000    0.03787    0.04251 =
         0.04488    0.00261    0.01582    0.00306
AFIX  43
H35   2    0.093282    0.904402    0.491870    11.00000   -1.20000
AFIX   0
C36   1    0.176052    1.006288    0.534751    11.00000    0.04695    0.04503 =
         0.05837    0.00778    0.02221    0.00459
AFIX  43
H36   2    0.125577    1.043881    0.507378    11.00000   -1.20000
AFIX   0
C37   1    0.267994    1.034272    0.584129    11.00000    0.05363    0.03674 =
         0.06687   -0.00012    0.02966   -0.00467
AFIX  43
H37   2    0.281548    1.090990    0.590163    11.00000   -1.20000
AFIX   0
C38   1    0.339545    0.979910    0.624360    11.00000    0.04472    0.04574 =
         0.04721   -0.00610    0.02072   -0.00466
AFIX  43
H38   2    0.400828    0.999489    0.658887    11.00000   -1.20000
AFIX   0
C39   1    0.323523    0.896429    0.615251    11.00000    0.03849    0.04015 =
         0.04165    0.00063    0.01660    0.00204
AFIX  43
H39   2    0.373506    0.859277    0.643284    11.00000   -1.20000
AFIX   0
C40   1    0.008012    0.636002    0.465186    11.00000    0.04408    0.05126 =
         0.04438    0.00232    0.00471   -0.00930
AFIX  13
H40   2    0.031775    0.615290    0.509706    11.00000   -1.20000
AFIX   0
C41   1   -0.050165    0.711802    0.460249    11.00000    0.03785    0.05137 =
         0.04170    0.00476    0.01393   -0.00191
AFIX  13
H41   2   -0.058632    0.734507    0.502047    11.00000   -1.20000
AFIX   0
C42   1   -0.153791    0.737630    0.405185    11.00000    0.03633    0.05351 =
         0.04329    0.00479    0.01023   -0.00085
AFIX  23
H42A  2   -0.196602    0.688752    0.384523    11.00000   -1.20000
H42B  2   -0.214606    0.770657    0.421566    11.00000   -1.20000
AFIX   0
C43   1   -0.104007    0.786865    0.356534    11.00000    0.03994    0.07109 =
         0.04410    0.01202    0.00824    0.00183
AFIX  23
H43A  2   -0.162433    0.783503    0.314867    11.00000   -1.20000
H43B  2   -0.096775    0.844620    0.369627    11.00000   -1.20000
AFIX   0
C44   1    0.021638    0.755405    0.350292    11.00000    0.04424    0.07996 =
         0.03528    0.00864    0.01395   -0.00735
AFIX  13
H44   2    0.064092    0.792504    0.325179    11.00000   -1.20000
AFIX   0
C45   1    0.055782    0.677512    0.347630    11.00000    0.04204    0.07748 =
         0.04210   -0.00527    0.01006   -0.00274
AFIX  13
H45   2    0.118457    0.669218    0.321228    11.00000   -1.20000
AFIX   0
C46   1   -0.026860    0.603338    0.348653    11.00000    0.04971    0.06985 =
         0.05483   -0.01531    0.00441    0.00767
AFIX  23
H46A  2   -0.003979    0.560364    0.321252    11.00000   -1.20000
H46B  2   -0.113781    0.618648    0.331041    11.00000   -1.20000
AFIX   0
C47   1   -0.015427    0.569600    0.416109    11.00000    0.04745    0.04473 =
         0.06440   -0.00616    0.00744   -0.00437
AFIX  23
H47A  2   -0.092451    0.540712    0.418595    11.00000   -1.20000
H47B  2    0.053147    0.529911    0.425303    11.00000   -1.20000
AFIX   0

F1    5    0.602476    0.689277    0.799840    11.00000    0.04206    0.07803 =
         0.09297    0.03152    0.01016   -0.00147
F2    5    0.464233    0.758084    0.726315    11.00000    0.04601    0.08174 =
         0.04453   -0.00450    0.00888    0.01339
F3    5    0.658831    0.735395    0.711185    11.00000    0.06256    0.10765 =
         0.06843   -0.01272    0.03226    0.01776
F4    5    0.626854    0.823878    0.785600    11.00000    0.07435    0.04925 =
         0.07889   -0.01411    0.00401    0.00385
B1    3    0.589296    0.752113    0.755969    11.00000    0.04199    0.04737 =
         0.04932   -0.00283    0.01578    0.00129
HKLF 4




REM  m2283_a.res in P2(1)/c
REM R1 =  0.0390 for    6861 Fo > 4sig(Fo)  and  0.0449 for all    7844 data
REM    505 parameters refined using      0 restraints

END

WGHT      0.0664      3.7543

REM Highest difference peak  1.454,  deepest hole -0.894,  1-sigma level  0.109
Q1    1   0.0900  0.7239  0.4019  11.00000  0.05    1.45
;
_shelx_res_checksum   95116

_shelx_hkl_file
;
   1   0   0 4117.01  222.16
   2   0   0 20485.8   908.7
   3   0   0 50968.7  2250.0
   4   0   0 133261.   4879.
   5   0   0 10436.2   299.7
   6   0   0 43285.5  6204.2
   7   0   0 8156.96  198.77
   8   0   0 4733.91  135.03
   9   0   0 7763.93  349.72
  10   0   0 7528.98  592.89
  11   0   0 7050.40  363.47
  12   0   0 2498.02   92.93
  13   0   0   28.02   48.99
   1   1   0 146781.   4562.
   2   1   0 71191.1  2368.4
   3   1   0 3204.13  183.66
   4   1   0 1079.60   52.81
   5   1   0 27492.4   489.1
   6   1   0 33573.7  1330.3
   7   1   0   19.51   22.50
   8   1   0  470.71   33.54
   9   1   0 9592.47  260.98
  10   1   0 7169.25  259.71
  11   1   0 1032.39   84.58
  12   1   0 1653.01   76.29
  13   1   0 3656.25  100.64
   0   2   0 178596.   8204.
   1   2   0 62622.6  1467.3
   2   2   0 23926.4   617.8
   3   2   0 65798.3  1276.9
   4   2   0 26408.0   343.0
   5   2   0 2618.81   64.82
   6   2   0   16.33   27.41
   7   2   0 15117.6   264.2
   8   2   0 9331.72  172.68
   9   2   0  384.39   35.01
  10   2   0 1098.79   68.76
  11   2   0 5694.89  219.01
  12   2   0 7466.87  297.73
  13   2   0    0.14   33.07
   1   3   0 8674.98  120.79
   2   3   0 94468.0  1467.4
   3   3   0  842.92   39.46
   4   3   0 8876.97  155.21
   5   3   0 2616.84   77.15
   6   3   0 25597.6   566.5
   7   3   0 1957.53   70.23
   8   3   0 3338.54   99.83
   9   3   0 4511.71  103.52
  10   3   0 5825.55  248.97
  11   3   0 2476.82  105.22
  12   3   0 1198.08   73.50
  13   3   0 3470.83  153.45
   0   4   0 171728.   3887.
   1   4   0 11311.6   175.4
   2   4   0 8650.92   92.01
   3   4   0 35542.9   963.1
   4   4   0 35354.4   853.5
   5   4   0 4895.39  140.96
   6   4   0 5250.66  111.36
   7   4   0 8920.82  256.24
   8   4   0 2980.20   94.13
   9   4   0  280.64   37.23
  10   4   0  961.95   57.65
  11   4   0 4929.42  146.25
  12   4   0 3122.98   99.18
  13   4   0    0.00   35.01
   1   5   0 7778.07  183.55
   2   5   0 29768.6   293.2
   3   5   0 4564.20   69.19
   4   5   0 9011.61  193.50
   5   5   0 20035.8   349.5
   6   5   0 7157.54  173.28
   7   5   0 1015.33   42.39
   8   5   0 1001.03   44.40
   9   5   0 2795.28   91.00
  10   5   0 1655.90   70.26
  11   5   0  865.78   48.25
  12   5   0 1003.64   69.03
  13   5   0 1858.59   93.50
   0   6   0 67008.2   876.3
   1   6   0 4533.49   60.28
   2   6   0  796.03   52.06
   3   6   0 14406.8   211.0
   4   6   0 5505.68  111.80
   5   6   0  478.99   33.26
   6   6   0 4125.69  118.19
   7   6   0 5357.51  137.51
   8   6   0 2139.08   78.34
   9   6   0 1228.93   51.76
  10   6   0  792.87   61.03
  11   6   0 1220.89   78.93
  12   6   0 1296.36   91.12
   1   7   0 54947.6   690.8
   2   7   0  264.44   15.94
   3   7   0  907.44   41.87
   4   7   0    0.00   21.22
   5   7   0 8150.67  152.36
   6   7   0  763.69   37.48
   7   7   0  182.64   34.10
   8   7   0   94.20   35.79
   9   7   0 2248.51  111.27
  10   7   0  983.64  104.14
  11   7   0  397.25   47.49
  12   7   0  393.51   54.34
   0   8   0 33190.1   548.1
   1   8   0  787.78   57.92
   2   8   0 2854.32   81.38
   3   8   0 2166.20   61.17
   4   8   0  387.73   26.49
   5   8   0  384.89   43.77
   6   8   0 2604.07  112.42
   7   8   0  505.56   48.86
   8   8   0  377.36   54.58
   9   8   0 2215.80   91.65
  10   8   0  183.40   63.23
  11   8   0  281.04   57.93
  12   8   0  121.86   59.15
   1   9   0  383.61   39.09
   2   9   0 5081.42   73.79
   3   9   0 1087.71   34.84
   4   9   0 1200.16   45.00
   5   9   0  805.78   45.87
   6   9   0  353.48   48.74
   7   9   0  386.15   51.89
   8   9   0    0.00   63.35
   9   9   0  174.57   62.28
  10   9   0  408.08   57.86
  11   9   0  801.31   94.15
  12   9   0   18.37   29.22
   0  10   0 1523.59   38.15
   1  10   0 1340.64   55.74
   2  10   0  613.18   48.27
   3  10   0 3318.61   64.37
   4  10   0  990.69   46.45
   5  10   0  793.17   48.15
   6  10   0  110.49   53.14
   7  10   0  125.95   59.61
   8  10   0  272.95   59.97
   9  10   0  380.44   68.78
  10  10   0  159.19   51.98
  11  10   0   39.31   58.47
   1  11   0  714.59   31.16
   2  11   0 2533.64   40.26
   3  11   0  161.79   31.60
   4  11   0 1466.58   62.59
   5  11   0  766.07   46.21
   6  11   0 2061.32  124.40
   7  11   0  101.89   62.01
   8  11   0  104.44   60.62
   9  11   0  193.88   46.67
  10  11   0  202.55   44.39
  11  11   0   74.40   90.73
   0  12   0  591.55   30.90
   1  12   0 1402.02   29.84
   2  12   0  262.64   25.93
   3  12   0  388.02   38.08
   4  12   0    2.04   31.46
   5  12   0 2135.51  115.72
   6  12   0    1.75   59.94
   7  12   0 1011.90   72.13
   8  12   0  570.36   50.52
   9  12   0    0.00   55.12
  10  12   0  110.42   65.12
  11  12   0  290.72   81.13
   1  13   0 3160.86   56.39
   2  13   0  445.18   24.56
   3  13   0  619.90   36.40
   4  13   0  105.25   46.70
   5  13   0 1382.45   89.02
   6  13   0 1946.88   87.79
   7  13   0  267.95  126.48
   8  13   0 1487.98   74.18
   9  13   0  772.35   68.73
  10  13   0  154.95   97.43
   0  14   0 5070.11  120.96
   1  14   0 3937.31   75.84
   2  14   0  451.18   28.44
   3  14   0   80.87   29.20
   4  14   0 4509.46  162.77
   5  14   0 1625.19  126.13
   6  14   0 2353.66  209.36
   7  14   0 1552.38  175.83
   8  14   0 1064.98   97.57
   9  14   0   39.79   45.07
   1  15   0 4307.73   66.07
   2  15   0  761.32   37.30
   3  15   0 1392.09   65.70
   4  15   0  261.64   35.23
   5  15   0 4942.39  208.84
   6  15   0 2901.55  167.76
   7  15   0  112.37   65.83
   8  15   0  548.33   62.54
   9  15   0  504.06   80.65
   0  16   0 2554.26   93.35
   1  16   0 1813.78   50.96
   2  16   0  346.64   34.73
   3  16   0  719.92   60.62
   4  16   0 2581.34   98.42
   5  16   0 2572.16  159.10
   6  16   0  210.33   54.87
   7  16   0 1417.93  113.67
   8  16   0  631.36   75.58
   1  17   0  898.46   74.22
   2  17   0 3390.21   78.74
   3  17   0 1079.91   51.97
   4  17   0  167.24   49.38
   5  17   0 1617.41  151.29
   6  17   0 2759.78  145.95
   7  17   0  455.10   61.99
   0  18   0 2993.21  134.93
   1  18   0 1124.78   59.58
   2  18   0  203.21   43.30
   3  18   0 1248.75   98.09
   4  18   0 2919.18  129.57
   5  18   0 1531.36  111.18
   6  18   0  482.81   62.32
   1  19   0 2399.13  104.42
   2  19   0 1513.37  113.59
   3  19   0  594.64   84.15
   4  19   0  144.70   55.97
   5  19   0  803.57  121.88
   2  20   0  258.36  138.68
   3  20   0  751.23   85.59
 -13   1   1   85.53   29.17
 -12   1   1  259.14   32.15
 -11   1   1  127.51   39.68
 -10   1   1  672.61   39.47
  -9   1   1 2649.91   62.37
  -8   1   1 1143.01   43.16
  -7   1   1 2567.54   77.58
  -6   1   1 12574.3   540.5
  -5   1   1   56.56   27.29
  -4   1   1 18183.6   389.6
  -3   1   1 55351.8  1497.1
  -2   1   1 5184.76  178.61
  -1   1   1  651.58   11.42
   0   1   1 8192.41  330.88
   1   1   1  663.25   11.93
   2   1   1  174.77    9.17
   3   1   1 17580.9   458.5
   4   1   1  449.90   18.60
   5   1   1 1319.80   50.49
   6   1   1  453.77   28.53
   7   1   1   46.46   22.44
   8   1   1  370.47   32.22
   9   1   1   29.66   28.29
  10   1   1  201.26   46.54
  11   1   1  540.28   67.18
  12   1   1  340.08   32.40
  13   1   1    2.04   33.46
 -13   2   1  108.54   28.06
 -12   2   1   21.51   29.64
 -11   2   1  954.29   59.53
 -10   2   1   80.66   27.91
  -9   2   1 2988.25   64.26
  -8   2   1    0.00   30.35
  -7   2   1 1136.59   39.17
  -6   2   1  134.95   39.54
  -5   2   1 10373.2   232.7
  -4   2   1  469.25   18.21
  -3   2   1 9964.65  245.44
  -2   2   1  111.77    9.86
  -1   2   1 7907.41  200.49
   0   2   1 2214.99   69.66
   1   2   1 1207.53   16.65
   2   2   1  207.85   10.23
   3   2   1 4376.95   54.26
   4   2   1  603.12   20.49
   5   2   1 9304.75  113.94
   6   2   1 3928.26  115.81
   7   2   1  631.69   31.16
   8   2   1   39.06   28.21
   9   2   1  167.73   32.80
  10   2   1 2274.46  135.02
  11   2   1  156.62   51.02
  12   2   1   19.67   31.40
  13   2   1   82.38   43.72
 -13   3   1    0.00   36.78
 -12   3   1   12.29   27.10
 -11   3   1  206.83   36.68
 -10   3   1 2032.55   81.85
  -9   3   1 1252.88   42.87
  -8   3   1 3763.10   73.40
  -7   3   1 4945.05   92.45
  -6   3   1  418.75   32.17
  -5   3   1  542.28   48.13
  -4   3   1 3571.73   67.78
  -3   3   1 33730.4   989.4
  -2   3   1 2826.01  104.51
  -1   3   1 29376.2   349.7
   0   3   1 6156.59  106.58
   1   3   1 50176.8   705.1
   2   3   1 10269.9   173.6
   3   3   1 3173.86   89.53
   4   3   1 21580.8   375.4
   5   3   1  873.14   26.78
   6   3   1 1708.63   65.29
   7   3   1 1105.27   40.54
   8   3   1 5010.64  144.57
   9   3   1  318.93   35.72
  10   3   1  409.13   48.28
  11   3   1 1001.45   55.85
  12   3   1  589.24   40.53
  13   3   1  157.18   46.50
 -13   4   1  243.47   39.40
 -12   4   1  791.67   36.86
 -11   4   1  293.11   42.89
 -10   4   1  126.06   36.35
  -9   4   1 3669.44   74.75
  -8   4   1 1829.45   48.21
  -7   4   1  374.59   26.75
  -6   4   1 1649.37   45.78
  -5   4   1 24608.4   388.1
  -4   4   1 2557.58  112.32
  -3   4   1 4163.91   78.42
  -2   4   1 14787.2   180.1
  -1   4   1 20894.5   256.3
   0   4   1  716.94   61.96
   1   4   1 10262.9   118.8
   2   4   1 22141.6   194.8
   3   4   1 24182.4   372.1
   4   4   1  875.48   27.02
   5   4   1 23159.8   562.7
   6   4   1 8890.47  231.44
   7   4   1 1415.59   45.94
   8   4   1   66.83   33.09
   9   4   1 7022.14  259.18
  10   4   1 4456.28  163.78
  11   4   1    0.00   33.71
  12   4   1   34.87   30.52
  13   4   1  139.68   44.49
 -13   5   1  241.47   59.28
 -12   5   1  442.45   37.75
 -11   5   1 2514.11   69.56
 -10   5   1 3799.26   84.23
  -9   5   1  783.84   37.50
  -8   5   1 2350.77   60.07
  -7   5   1 7098.02  153.56
  -6   5   1  288.37   21.48
  -5   5   1 2364.57   73.05
  -4   5   1 15304.5   495.9
  -3   5   1 56586.5   954.7
  -2   5   1 5329.91   78.18
  -1   5   1 1130.20   26.91
   0   5   1 10726.6   197.1
   1   5   1 16833.6   317.5
   2   5   1 4497.70  110.62
   3   5   1 7486.82  128.35
   4   5   1 24164.2   498.5
   5   5   1 3841.18  151.80
   6   5   1    7.02   25.53
   7   5   1 3668.97  138.00
   8   5   1 9812.27  214.92
   9   5   1 1087.57   47.55
  10   5   1 1721.23   57.69
  11   5   1 1758.79   62.60
  12   5   1  873.52   45.26
  13   5   1   13.31   37.51
 -13   6   1 1054.52   86.08
 -12   6   1 1662.53  102.59
 -11   6   1   98.10   34.23
 -10   6   1   32.81   29.25
  -9   6   1 6139.61  163.86
  -8   6   1 5990.85  116.84
  -7   6   1 3813.86   96.41
  -6   6   1 8814.84  161.91
  -5   6   1 3884.61   83.51
  -4   6   1 12006.4   326.9
  -3   6   1  151.33   31.15
  -2   6   1 52628.9   700.6
  -1   6   1 18624.9   289.0
   0   6   1 1133.48   91.78
   1   6   1   73.99   13.17
   2   6   1 25891.5   254.6
   3   6   1 23130.7   472.0
   4   6   1 4069.58   88.25
   5   6   1 8583.48  332.31
   6   6   1 12937.1   304.6
   7   6   1 10964.7   372.6
   8   6   1   35.27   29.93
   9   6   1 7965.61  337.56
  10   6   1 3380.21  113.77
  11   6   1  167.95   38.69
  12   6   1  108.07   39.38
 -12   7   1  222.93   43.25
 -11   7   1 2481.22   87.75
 -10   7   1 5296.68  301.99
  -9   7   1  593.97   44.44
  -8   7   1 6873.72  151.74
  -7   7   1 8128.80  178.88
  -6   7   1 3672.65   65.81
  -5   7   1   63.08   21.97
  -4   7   1 12336.1   272.4
  -3   7   1 34551.0   459.5
  -2   7   1 7667.51  109.62
  -1   7   1 5031.59   93.02
   0   7   1 16516.5   184.3
   1   7   1 21618.5   219.6
   2   7   1 3024.19   87.40
   3   7   1 5350.74   80.69
   4   7   1 28129.5   684.2
   5   7   1 6292.08  164.88
   6   7   1   38.92   26.49
   7   7   1 2588.78   67.69
   8   7   1 9595.94  579.80
   9   7   1 1767.38  101.96
  10   7   1 1677.70  153.15
  11   7   1 3051.04  179.50
  12   7   1 1100.86  105.30
 -12   8   1  750.86   52.22
 -11   8   1 1573.88   77.24
 -10   8   1 1419.12   79.99
  -9   8   1 8335.80  296.04
  -8   8   1  624.49   51.14
  -7   8   1   49.75   29.83
  -6   8   1 3272.84  116.08
  -5   8   1 28204.8   921.7
  -4   8   1 2826.38   62.66
  -3   8   1 3279.07   83.91
  -2   8   1 10124.8   113.4
  -1   8   1 28880.0   434.6
   0   8   1 2078.51   45.16
   1   8   1 1707.07   28.54
   2   8   1 3872.65   97.76
   3   8   1 29174.5   780.8
   4   8   1  370.79   27.25
   5   8   1 14964.8   340.8
   6   8   1 14600.2   333.9
   7   8   1 7874.93  322.72
   8   8   1    0.00   49.46
   9   8   1 6179.78  177.02
  10   8   1 5107.41  163.91
  11   8   1  195.54   52.59
  12   8   1  155.74   52.63
 -12   9   1   71.79   24.49
 -11   9   1 2499.22  121.66
 -10   9   1 5014.10  215.75
  -9   9   1  233.73   42.60
  -8   9   1 8058.69  274.88
  -7   9   1 6330.40  181.28
  -6   9   1 4834.72  168.29
  -5   9   1  111.76   24.84
  -4   9   1 18552.7   334.1
  -3   9   1 15799.0   314.4
  -2   9   1 1536.81   28.21
  -1   9   1 1642.02   46.57
   0   9   1 12112.6   262.7
   1   9   1 25266.6   496.2
   2   9   1  718.02   32.81
   3   9   1 5085.95   96.94
   4   9   1 29742.9   947.3
   5   9   1 11904.5   643.7
   6   9   1  260.96   46.90
   7   9   1 5646.44  224.74
   8   9   1 5700.70  403.78
   9   9   1 1020.67  100.65
  10   9   1 1122.35   70.34
  11   9   1 3201.82  147.28
  12   9   1  697.36   62.98
 -11  10   1  679.60   91.64
 -10  10   1  478.17   50.92
  -9  10   1 5732.32  226.15
  -8  10   1 4284.30  134.49
  -7  10   1  268.48   39.09
  -6  10   1 4745.80  213.17
  -5  10   1 10084.2   276.5
  -4  10   1 6753.60  165.25
  -3  10   1 1194.56   58.62
  -2  10   1 22218.5   363.2
  -1  10   1 14401.3   157.2
   0  10   1 3024.63   77.53
   1  10   1 3025.68   46.67
   2  10   1 21860.8   327.8
   3  10   1 27430.5   642.3
   4  10   1   16.25   24.46
   5  10   1 13657.2   646.8
   6  10   1 9984.76  387.78
   7  10   1 3408.33  125.23
   8  10   1  387.98   70.82
   9  10   1 7238.13  223.65
  10  10   1 4055.50  127.44
  11  10   1  227.01   47.85
 -11  11   1 1061.17  110.76
 -10  11   1 2174.46   68.48
  -9  11   1  428.51   37.99
  -8  11   1 3768.99  310.95
  -7  11   1 10202.2   259.6
  -6  11   1 4025.29  105.67
  -5  11   1   44.11   24.36
  -4  11   1 9584.68  314.11
  -3  11   1 16077.2   253.5
  -2  11   1  367.06   19.90
  -1  11   1 2049.02   48.44
   0  11   1 15611.2   148.8
   1  11   1 16542.9   240.3
   2  11   1 2123.38   82.61
   3  11   1 5929.95  112.92
   4  11   1 27152.3   699.6
   5  11   1 7642.92  209.16
   6  11   1  384.94   54.96
   7  11   1 6204.50  149.10
   8  11   1 3689.20  266.12
   9  11   1 2054.07  191.89
  10  11   1  952.28   83.44
  11  11   1 1486.59  136.21
 -11  12   1  205.01   39.15
 -10  12   1  572.96   83.81
  -9  12   1 4199.55  168.17
  -8  12   1 1005.19   55.27
  -7  12   1   26.74   29.62
  -6  12   1 4701.60  296.01
  -5  12   1 7545.26  372.65
  -4  12   1  500.98   36.91
  -3  12   1 2102.08  104.56
  -2  12   1 5143.72   96.91
  -1  12   1 9439.46  120.07
   0  12   1 1285.97   32.99
   1  12   1 3494.94   67.37
   2  12   1 5741.59   97.44
   3  12   1 16929.0   533.2
   4  12   1  654.62   52.22
   5  12   1 6674.01  170.96
   6  12   1 8115.53  395.53
   7  12   1 2406.48  108.99
   8  12   1   58.52   52.75
   9  12   1 4831.84  267.28
  10  12   1 2663.05  106.81
 -10  13   1 1055.06  110.06
  -9  13   1   26.13   56.95
  -8  13   1 2919.87  156.53
  -7  13   1 3931.86  237.69
  -6  13   1 1038.28   72.20
  -5  13   1  679.64   45.53
  -4  13   1 2999.12  162.96
  -3  13   1 2896.85   78.51
  -2  13   1  313.88   20.23
  -1  13   1  848.68   36.48
   0  13   1 7750.29   87.40
   1  13   1 5166.46   73.99
   2  13   1  811.52   45.19
   3  13   1 3503.28   72.24
   4  13   1 8260.76  261.35
   5  13   1 5067.82  337.11
   6  13   1  407.79   60.77
   7  13   1 4275.01  475.12
   8  13   1 2688.35  103.01
   9  13   1  779.41   67.61
  10  13   1  122.25   84.18
 -10  14   1  237.66   68.40
  -9  14   1  834.78  157.00
  -8  14   1  576.81   82.19
  -7  14   1   11.12   43.40
  -6  14   1 2517.58  180.13
  -5  14   1 1632.99   82.66
  -4  14   1  837.37   49.66
  -3  14   1  791.42   35.20
  -2  14   1 3110.98   82.22
  -1  14   1 4856.10   64.52
   0  14   1 2567.53   56.97
   1  14   1 2270.91   73.65
   2  14   1 4954.15  101.32
   3  14   1 4773.62  141.96
   4  14   1   54.17   47.65
   5  14   1 1190.02   76.73
   6  14   1 5531.95  234.02
   7  14   1 1062.13   80.28
   8  14   1  262.04   59.70
   9  14   1 1289.32   87.15
  -9  15   1  256.83   43.14
  -8  15   1  493.26   45.68
  -7  15   1 1692.76  111.69
  -6  15   1  683.89   63.57
  -5  15   1  131.39   44.99
  -4  15   1 2176.94  104.68
  -3  15   1 3765.23   91.53
  -2  15   1  585.89   31.05
  -1  15   1  989.49   34.39
   0  15   1 1323.74   36.39
   1  15   1 4824.30   85.32
   2  15   1   74.17   30.37
   3  15   1 3467.85   64.85
   4  15   1 4217.44  171.92
   5  15   1 2725.92  120.74
   6  15   1  188.69   48.98
   7  15   1 2618.34  169.45
   8  15   1  905.61   91.52
   9  15   1    0.14   54.61
  -8  16   1  663.67   68.66
  -7  16   1   67.03   41.91
  -6  16   1  931.07   60.54
  -5  16   1  501.42   43.99
  -4  16   1  356.07   32.82
  -3  16   1  245.29   43.33
  -2  16   1 1749.25   75.33
  -1  16   1 1035.06   35.52
   0  16   1 1027.79   34.36
   1  16   1  303.48   34.75
   2  16   1 1724.10   60.44
   3  16   1 1389.07   67.96
   4  16   1  212.27   39.16
   5  16   1  512.96   52.45
   6  16   1 1647.47  145.82
   7  16   1  419.58   59.15
   8  16   1  197.55   61.87
  -7  17   1  415.68   64.65
  -6  17   1  419.31   56.61
  -5  17   1  475.83   59.77
  -4  17   1  914.14   73.22
  -3  17   1   38.41   25.59
  -2  17   1  380.59   32.02
  -1  17   1  182.04   45.31
   0  17   1 1146.02  110.60
   1  17   1  577.47   43.02
   2  17   1   81.55   37.68
   3  17   1    2.01   37.31
   4  17   1 1397.21   64.45
   5  17   1  799.61  112.17
   6  17   1   64.63   65.31
   7  17   1  380.38   71.13
  -6  18   1  256.96   44.47
  -5  18   1  535.79   55.56
  -4  18   1  233.58   84.31
  -3  18   1  216.47   43.00
  -2  18   1  126.18   44.67
  -1  18   1  209.47   39.92
   0  18   1  532.59   53.18
   1  18   1  164.31   48.16
   2  18   1  247.14   35.30
   3  18   1  239.62   43.27
   4  18   1  625.04   70.39
   5  18   1  158.32   63.11
   6  18   1  317.43   65.20
  -5  19   1  171.31  104.93
  -4  19   1  153.74   60.53
  -3  19   1  146.48   61.91
  -2  19   1   76.31   49.83
  -1  19   1  230.64   62.51
   0  19   1  166.12   73.31
   1  19   1  343.14  102.21
   2  19   1   76.13   78.06
   3  19   1  115.37   90.41
   4  19   1   92.96   53.16
   5  19   1  238.15   92.69
  -3  20   1  104.55  114.62
  -2  20   1  495.55  143.13
   2  20   1    3.13   67.78
   3  20   1    0.00   76.59
 -13   0   2 1040.77   94.82
 -12   0   2  140.28   41.78
 -11   0   2  975.14   61.49
 -10   0   2 17098.7   767.4
  -9   0   2  252.13   41.71
  -8   0   2  113.33   39.23
  -7   0   2 2945.21  113.13
  -6   0   2 87478.0  3501.4
  -5   0   2 2852.74   86.88
  -4   0   2 50158.1  1369.7
  -3   0   2 30425.8   673.8
  -2   0   2 33308.6   710.0
  -1   0   2  914.65   18.07
   0   0   2 117771.   1464.
   1   0   2 98543.6  1928.4
   2   0   2  718.27   35.20
   3   0   2 43362.7   793.1
   4   0   2 2633.06   88.94
   5   0   2 32632.0   966.1
   6   0   2 7666.35  172.63
   7   0   2 19285.3   598.4
   8   0   2 10546.5   406.7
   9   0   2 7747.86  248.39
  10   0   2  256.09   70.44
  11   0   2 3551.06  234.46
  12   0   2 5735.38  226.65
  13   0   2 1106.00   99.52
 -13   1   2 1049.83   48.48
 -12   1   2 4580.61  158.25
 -11   1   2  876.18   40.50
 -10   1   2 1419.56   49.54
  -9   1   2 2748.85   61.28
  -8   1   2 14202.0   281.4
  -7   1   2 8229.08  149.55
  -6   1   2  219.06   62.92
  -5   1   2 65488.6  1029.8
  -4   1   2 42198.4  1067.3
  -3   1   2  356.79   67.27
  -2   1   2 18932.1   313.8
  -1   1   2 148734.   3979.
   0   1   2 64815.0  1441.4
   1   1   2 34955.5   613.3
   2   1   2 40424.5  1012.6
   3   1   2 34028.6   583.4
   4   1   2 6026.94  116.90
   5   1   2 4694.04  117.05
   6   1   2 15924.4   237.8
   7   1   2 41281.0   767.6
   8   1   2  320.75   30.96
   9   1   2 3175.08  105.07
  10   1   2 8800.23  465.61
  11   1   2 4860.43  104.65
  12   1   2   83.36   28.36
  13   1   2 2747.54   96.21
 -13   2   2 2028.93   73.65
 -12   2   2 1069.12   42.65
 -11   2   2 3838.90   92.12
 -10   2   2 4325.05  113.45
  -9   2   2 2640.38   61.53
  -8   2   2   22.28   25.10
  -7   2   2 12442.2   382.5
  -6   2   2 14088.4   434.7
  -5   2   2 1245.09   43.04
  -4   2   2 22516.2   720.7
  -3   2   2 69778.7  1795.7
  -2   2   2 29902.8   706.6
  -1   2   2 7696.23   90.10
   0   2   2 28875.8   585.6
   1   2   2 59197.5   938.7
   2   2   2 1947.28   33.58
   3   2   2 12688.8   179.8
   4   2   2 2577.85   44.03
   5   2   2 24630.4   290.2
   6   2   2 2303.47   72.50
   7   2   2 5741.06  103.55
   8   2   2 15925.9   335.0
   9   2   2 11051.9   298.9
  10   2   2  128.49   43.96
  11   2   2 2917.92   93.17
  12   2   2 4745.26  111.26
  13   2   2  669.17   90.90
 -13   3   2  462.94   34.61
 -12   3   2 2700.40   75.39
 -11   3   2 1141.71   54.99
 -10   3   2 1681.31   58.87
  -9   3   2 1327.27   45.56
  -8   3   2 11627.7   264.3
  -7   3   2 3906.07   76.44
  -6   3   2 1754.89   67.98
  -5   3   2 47776.9  1598.2
  -4   3   2 28758.4  1055.4
  -3   3   2 3787.82  166.63
  -2   3   2 9218.97  140.65
  -1   3   2 55425.5   588.5
   0   3   2 17611.1   377.5
   1   3   2 18974.0   368.3
   2   3   2 23389.8   461.5
   3   3   2 33302.4   644.2
   4   3   2 13338.5   374.9
   5   3   2 3822.74   67.83
   6   3   2 7889.22  221.69
   7   3   2 25960.6   881.4
   8   3   2  101.28   28.27
   9   3   2  844.68   46.06
  10   3   2 7101.28  285.92
  11   3   2 4704.55  138.90
  12   3   2    2.44   29.69
  13   3   2 2890.85  118.94
 -13   4   2  343.38   42.33
 -12   4   2   68.32   28.32
 -11   4   2 2557.43   68.02
 -10   4   2 4836.39  124.43
  -9   4   2 2969.58   87.40
  -8   4   2   41.09   26.07
  -7   4   2 4747.00  102.52
  -6   4   2 12117.2   402.3
  -5   4   2 3382.38   77.87
  -4   4   2 28517.7  1056.1
  -3   4   2 47549.8   956.4
  -2   4   2 39711.8   411.9
  -1   4   2 6892.79   82.62
   0   4   2 9800.31  159.75
   1   4   2 56469.3  1010.7
   2   4   2 1888.75   54.30
   3   4   2 7306.80  186.51
   4   4   2 5474.92  187.18
   5   4   2 11214.5   289.3
   6   4   2 2403.56   95.20
   7   4   2 2947.49  100.45
   8   4   2 11456.3   319.6
   9   4   2 2833.99  102.82
  10   4   2 1046.08   47.60
  11   4   2  942.87   46.88
  12   4   2 4639.22  104.73
  13   4   2  466.39   75.14
 -13   5   2  593.86   46.07
 -12   5   2 1469.70   72.60
 -11   5   2  164.78   38.85
 -10   5   2  380.97   44.29
  -9   5   2  560.24   32.31
  -8   5   2 9430.04  177.02
  -7   5   2 2330.26   62.69
  -6   5   2  171.03   21.63
  -5   5   2 19961.9   570.2
  -4   5   2 12829.3   371.0
  -3   5   2 5831.17  179.74
  -2   5   2 33783.3   328.1
  -1   5   2 41534.3   924.4
   0   5   2 15770.7   322.3
   1   5   2  273.21   12.12
   2   5   2 29907.8   419.3
   3   5   2 5056.55  128.18
   4   5   2 2262.53   81.94
   5   5   2 2518.49   59.52
   6   5   2 7014.46  167.46
   7   5   2 13659.0   418.9
   8   5   2  520.98   37.99
   9   5   2  387.82   43.83
  10   5   2 5181.12  222.68
  11   5   2 1124.01   51.69
  12   5   2  159.85   33.06
 -13   6   2  171.97   33.02
 -12   6   2  494.08   57.04
 -11   6   2  878.54   62.40
 -10   6   2  957.76   38.90
  -9   6   2  809.59   49.16
  -8   6   2  215.51   30.65
  -7   6   2 4855.64  101.44
  -6   6   2 3493.57   61.04
  -5   6   2 3620.08  152.16
  -4   6   2 11427.4   220.5
  -3   6   2 18211.3   208.1
  -2   6   2 4452.81  105.96
  -1   6   2  212.79   13.39
   0   6   2 30530.1   312.7
   1   6   2 15547.5   196.7
   2   6   2   76.98   11.26
   3   6   2 1228.16   24.75
   4   6   2 8083.31  345.22
   5   6   2 5337.92  217.08
   6   6   2  814.37   39.94
   7   6   2   89.51   27.33
   8   6   2 3812.64  166.28
   9   6   2 1979.61  140.12
  10   6   2    0.00   47.10
  11   6   2 1166.13   87.91
  12   6   2 1065.58   66.46
 -12   7   2  114.86   63.29
 -11   7   2  448.89   58.80
 -10   7   2  114.02   98.88
  -9   7   2  586.28   40.59
  -8   7   2  551.18   34.50
  -7   7   2 2445.30   54.26
  -6   7   2  416.80   23.98
  -5   7   2 14193.7   420.3
  -4   7   2  762.55   41.26
  -3   7   2 1974.54   51.93
  -2   7   2 8695.04  108.60
  -1   7   2 22523.5   343.4
   0   7   2 1442.20   29.60
   1   7   2   73.98   13.76
   2   7   2 9253.53  128.07
   3   7   2   89.95   17.67
   4   7   2 1608.27   76.04
   5   7   2  645.15   51.42
   6   7   2 3248.12   84.47
   7   7   2 2687.89  145.64
   8   7   2  582.70   54.20
   9   7   2   73.44   49.98
  10   7   2 2994.43  128.69
  11   7   2  661.77   59.16
  12   7   2  131.11   53.88
 -12   8   2  137.59   30.73
 -11   8   2   95.26   63.65
 -10   8   2  272.19   95.45
  -9   8   2  338.99   54.54
  -8   8   2    0.94   39.59
  -7   8   2  134.49   28.48
  -6   8   2  669.80   35.02
  -5   8   2 3949.43  142.83
  -4   8   2 3546.93   72.48
  -3   8   2 5269.68   96.30
  -2   8   2  344.68   19.56
  -1   8   2  620.75   29.21
   0   8   2 6100.07   68.65
   1   8   2 2684.14   38.64
   2   8   2 1032.83   31.04
   3   8   2  267.67   29.71
   4   8   2  229.15   25.95
   5   8   2  207.42   44.92
   6   8   2  414.47   64.09
   7   8   2  397.44   62.04
   8   8   2 1869.58   81.60
   9   8   2 1174.18   69.48
  10   8   2  133.65   50.76
  11   8   2  206.75   47.79
  12   8   2  253.71   51.33
 -12   9   2    0.00   22.04
 -11   9   2  117.93   58.65
 -10   9   2    3.13   58.93
  -9   9   2  364.74   37.79
  -8   9   2  235.10   46.36
  -7   9   2   53.66   43.40
  -6   9   2  427.95   35.65
  -5   9   2   29.48   23.92
  -4   9   2 1456.03   40.06
  -3   9   2 2541.81   56.50
  -2   9   2 5395.78   71.23
  -1   9   2  437.22   48.24
   0   9   2 2040.84   91.74
   1   9   2    0.00   33.03
   2   9   2  739.88   31.14
   3   9   2   53.60   21.26
   4   9   2    2.76   27.43
   5   9   2    2.65   39.28
   6   9   2  197.67   44.45
   7   9   2 1258.56   91.59
   8   9   2  488.94   62.79
   9   9   2   52.33   91.93
  10   9   2 1336.77   72.25
  11   9   2  124.87   56.48
 -12  10   2   33.80   39.81
 -11  10   2    3.74   41.63
 -10  10   2   87.57   41.42
  -9  10   2   37.02   56.18
  -8  10   2    0.00   43.96
  -7  10   2  162.46   33.53
  -6  10   2  525.20   32.55
  -5  10   2  894.31   37.76
  -4  10   2  499.58   34.79
  -3  10   2  261.69   17.45
  -2  10   2 1475.52  107.77
  -1  10   2 3319.64   63.36
   0  10   2   34.27   18.07
   1  10   2   12.84   16.86
   2  10   2 1070.92   30.35
   3  10   2  309.11   31.63
   4  10   2    0.00   31.58
   5  10   2   88.81   45.11
   6  10   2  711.72   59.54
   7  10   2  315.34   55.19
   8  10   2  210.64   52.02
   9  10   2  184.81   51.55
  10  10   2  160.45   55.55
  11  10   2   91.10   42.62
 -11  11   2   11.11   43.63
 -10  11   2  355.35   45.98
  -9  11   2  451.26   41.53
  -8  11   2    0.00   37.87
  -7  11   2  313.87   48.42
  -6  11   2 1995.27   58.87
  -5  11   2  421.01   26.25
  -4  11   2  429.85   51.89
  -3  11   2 1319.61  126.19
  -2  11   2  828.34   22.79
  -1  11   2   10.78   16.02
   0  11   2 1753.47   37.79
   1  11   2    0.00   25.24
   2  11   2  900.05   30.79
   3  11   2 1061.92   37.95
   4  11   2  309.69   41.86
   5  11   2  859.45   60.97
   6  11   2  501.83   64.88
   7  11   2   98.32   51.25
   8  11   2    0.00  104.25
   9  11   2  395.08   54.11
  10  11   2  301.42   54.21
  11  11   2   21.70   70.89
 -11  12   2  472.29   48.76
 -10  12   2  274.08   87.87
  -9  12   2    0.00   47.37
  -8  12   2  100.83   40.93
  -7  12   2  567.58   38.31
  -6  12   2 1332.91   51.23
  -5  12   2  317.27   44.81
  -4  12   2  616.40   30.32
  -3  12   2  583.62   33.45
  -2  12   2  464.42   42.38
  -1  12   2 2163.23   37.62
   0  12   2 2297.24   36.94
   1  12   2  811.33   27.64
   2  12   2  458.25   29.84
   3  12   2   68.69   38.77
   4  12   2 1503.84   61.54
   5  12   2 1684.27   92.56
   6  12   2  301.70   76.76
   7  12   2  373.19   81.51
   8  12   2  777.86   69.57
   9  12   2   18.45   56.31
  10  12   2   46.89   45.73
 -10  13   2  126.65   40.53
  -9  13   2  901.21  169.09
  -8  13   2   99.11   44.46
  -7  13   2  784.55  117.66
  -6  13   2 1146.45  132.97
  -5  13   2 2674.51   96.50
  -4  13   2  558.39   44.99
  -3  13   2  389.93   25.06
  -2  13   2   28.56   18.78
  -1  13   2 1671.46   32.55
   0  13   2 1999.87   39.10
   1  13   2  118.66   24.71
   2  13   2 3025.36   71.18
   3  13   2 2173.48   58.82
   4  13   2  693.84   58.66
   5  13   2   84.63   55.76
   6  13   2 3837.31  242.06
   7  13   2  786.97  115.79
   8  13   2  179.76   46.35
   9  13   2   54.68   50.45
  10  13   2   19.47   43.84
 -10  14   2  651.70   85.22
  -9  14   2  121.02   39.75
  -8  14   2  271.73  110.02
  -7  14   2  446.70   67.80
  -6  14   2 3168.16  204.08
  -5  14   2  688.45   54.53
  -4  14   2 1985.40   98.44
  -3  14   2   68.13   21.84
  -2  14   2  940.26   41.91
  -1  14   2  880.09   32.02
   0  14   2 3778.26   57.81
   1  14   2 6283.55  103.42
   2  14   2  139.66   27.16
   3  14   2   18.61   30.86
   4  14   2 2058.38   79.96
   5  14   2 3192.71  216.64
   6  14   2  389.83   77.38
   7  14   2 1035.87   94.93
   8  14   2 1226.35   84.10
   9  14   2   45.71   44.58
  -9  15   2  725.92   42.58
  -8  15   2  753.84   51.43
  -7  15   2  143.56   41.02
  -6  15   2  761.93   49.38
  -5  15   2 2794.14  124.95
  -4  15   2 1060.83   52.82
  -3  15   2  314.62   35.00
  -2  15   2  731.87   33.61
  -1  15   2 1653.85   47.36
   0  15   2 2326.34   66.65
   1  15   2    6.71   34.70
   2  15   2 6157.79  117.15
   3  15   2 1349.04   58.63
   4  15   2  739.84   61.14
   5  15   2   70.26   46.63
   6  15   2 3906.59  274.19
   7  15   2 1158.15  116.76
   8  15   2  142.57   43.94
  -8  16   2  118.04   40.14
  -7  16   2 1598.55  109.30
  -6  16   2  798.95   58.99
  -5  16   2  186.58   47.67
  -4  16   2  917.63   46.00
  -3  16   2 1202.16   98.93
  -2  16   2  574.24   33.37
  -1  16   2  390.79   28.52
   0  16   2 1619.94   44.40
   1  16   2 4218.01  115.87
   2  16   2  465.65   73.34
   3  16   2  114.50   49.21
   4  16   2 2969.14  148.48
   5  16   2 2516.84   87.52
   6  16   2  217.48   45.71
   7  16   2  897.30   94.99
   8  16   2  763.01   87.53
  -7  17   2  178.10   39.21
  -6  17   2 1002.81   64.97
  -5  17   2 1918.51   90.99
  -4  17   2  871.06   47.08
  -3  17   2  236.83   32.09
  -2  17   2 1040.94   53.24
  -1  17   2 2430.81  131.84
   0  17   2 1547.82   58.38
   1  17   2   30.61   31.26
   2  17   2 3234.12   98.89
   3  17   2 2339.78   93.16
   4  17   2  471.98   63.09
   5  17   2  242.60   47.76
   6  17   2 1256.01   78.89
   7  17   2  555.18  127.86
  -6  18   2 1415.56   69.13
  -5  18   2   17.83   44.58
  -4  18   2  970.28   68.79
  -3  18   2 1282.09   62.75
  -2  18   2 1725.42   74.85
  -1  18   2  470.57   51.02
   0  18   2 2003.47  112.85
   1  18   2 3024.60   90.16
   2  18   2 1048.16   87.65
   3  18   2  158.27   38.53
   4  18   2 1866.85   99.48
   5  18   2 1117.30   88.84
   6  18   2   99.40   58.15
  -5  19   2 1144.87  140.55
  -4  19   2  915.89  151.75
  -3  19   2   30.48   55.29
  -2  19   2  540.79   54.27
  -1  19   2 2867.25  124.17
   0  19   2 1935.29  284.18
   1  19   2   12.41   56.25
   2  19   2 1250.78  312.45
   3  19   2 1709.53  355.62
   4  19   2  198.00   55.50
  -3  20   2  902.89  137.29
  -2  20   2  930.37  149.12
   2  20   2  389.44  100.15
 -13   1   3  108.79   30.04
 -12   1   3  681.17   39.11
 -11   1   3  142.89   32.15
 -10   1   3 1442.99   48.77
  -9   1   3    2.94   28.12
  -8   1   3  725.56   44.86
  -7   1   3  358.55   41.54
  -6   1   3 1663.82  128.42
  -5   1   3 4862.92  229.85
  -4   1   3 1276.56   69.37
  -3   1   3 5245.86   87.93
  -2   1   3 17747.2   440.6
  -1   1   3 2105.33   66.58
   0   1   3   29.93    6.06
   1   1   3 4014.02   69.93
   2   1   3   50.25   11.33
   3   1   3 2120.01   50.72
   4   1   3  433.33   19.98
   5   1   3 1536.79   42.96
   6   1   3  122.41   21.54
   7   1   3    0.10   25.03
   8   1   3  276.24   27.44
   9   1   3  239.41   33.91
  10   1   3  113.12   32.44
  11   1   3  237.76   35.14
  12   1   3   80.67   25.88
  13   1   3    0.00   51.22
 -13   2   3  151.12   31.57
 -12   2   3    3.96   26.22
 -11   2   3 2049.23   63.06
 -10   2   3  318.12   40.58
  -9   2   3 2581.62   60.82
  -8   2   3 1275.85   42.89
  -7   2   3 2244.34   91.48
  -6   2   3 1627.29  122.08
  -5   2   3 1759.14   37.67
  -4   2   3   34.86   42.76
  -3   2   3  843.90   38.22
  -2   2   3   78.04    7.36
  -1   2   3 18074.1   356.0
   0   2   3 12195.5   217.8
   1   2   3 1759.87   39.30
   2   2   3 3142.21   51.60
   3   2   3   30.20   13.57
   4   2   3 3547.88   75.87
   5   2   3 4306.04   87.62
   6   2   3 2463.15   56.15
   7   2   3  443.66   31.14
   8   2   3   68.85   26.61
   9   2   3   18.36   33.84
  10   2   3 1263.41   56.11
  11   2   3  963.34   45.22
  12   2   3    0.00   28.59
  13   2   3   44.94   52.07
 -13   3   3  843.08   47.55
 -12   3   3   63.47   36.09
 -11   3   3  582.49   48.31
 -10   3   3  269.55   31.80
  -9   3   3 6179.09  125.43
  -8   3   3  403.48   40.75
  -7   3   3 10131.1   193.4
  -6   3   3  355.09   34.15
  -5   3   3 5358.65  208.75
  -4   3   3 1593.08  100.39
  -3   3   3 10781.6   284.7
  -2   3   3 21221.1   347.2
  -1   3   3 4852.94   58.81
   0   3   3 1215.65   32.90
   1   3   3 1569.31   27.79
   2   3   3 15606.7   272.8
   3   3   3    5.56   10.79
   4   3   3 4415.19  144.68
   5   3   3 4815.67  147.31
   6   3   3  614.38   33.47
   7   3   3  477.62   34.46
   8   3   3 1821.48   56.09
   9   3   3  832.12   79.77
  10   3   3 1671.62   62.24
  11   3   3   85.42   32.49
  12   3   3  733.31   40.36
 -13   4   3  326.88   42.82
 -12   4   3 1452.13   72.75
 -11   4   3 2445.09   79.18
 -10   4   3  650.84   53.20
  -9   4   3 1286.42   43.81
  -8   4   3 6318.70  130.02
  -7   4   3 1858.21   62.84
  -6   4   3 1316.72  154.29
  -5   4   3 4944.10  128.48
  -4   4   3 10120.7   383.9
  -3   4   3 19747.1   263.4
  -2   4   3  136.86    8.71
  -1   4   3 20338.1   255.5
   0   4   3 9574.40  178.88
   1   4   3 9701.44  285.38
   2   4   3 6792.19  175.96
   3   4   3 11524.1   318.0
   4   4   3 3468.03  132.72
   5   4   3 2282.59   52.74
   6   4   3 2570.74   82.34
   7   4   3 3214.84  130.13
   8   4   3 1287.33   57.40
   9   4   3 1325.88   58.59
  10   4   3 2096.86   66.48
  11   4   3 1803.58   96.80
  12   4   3    1.03   26.80
 -13   5   3 1185.60   60.84
 -12   5   3    0.46   39.57
 -11   5   3 1270.74   70.13
 -10   5   3 2833.83  134.42
  -9   5   3 4886.65   88.98
  -8   5   3  344.42   39.43
  -7   5   3 12530.9   267.3
  -6   5   3 3722.36   97.20
  -5   5   3 4981.79  158.88
  -4   5   3  803.08   42.47
  -3   5   3 24577.7   319.5
  -2   5   3 14550.5   166.5
  -1   5   3  190.20    7.42
   0   5   3 10016.4   130.7
   1   5   3 27652.2   343.4
   2   5   3 44121.5  1277.6
   3   5   3   20.30   11.84
   4   5   3 11234.0   171.2
   5   5   3 9847.81  392.42
   6   5   3 2242.60  106.82
   7   5   3  660.24   39.21
   8   5   3 4062.28  251.43
   9   5   3 5234.76  171.46
  10   5   3  504.36   59.25
  11   5   3 1141.68   50.64
  12   5   3  429.33   45.59
 -13   6   3  716.41   84.85
 -12   6   3 2225.84  117.53
 -11   6   3 2066.18  126.78
 -10   6   3  962.55   42.77
  -9   6   3 1887.03   58.46
  -8   6   3 8751.88  155.31
  -7   6   3 3459.19  105.64
  -6   6   3  866.28   42.39
  -5   6   3 6321.71  143.95
  -4   6   3 28958.3   571.7
  -3   6   3 9549.63  156.20
  -2   6   3 11128.2   165.9
  -1   6   3 30842.6   513.1
   0   6   3 10432.9   207.9
   1   6   3 9249.78  186.27
   2   6   3  825.87   21.58
   3   6   3 23972.6   532.0
   4   6   3 17596.4   303.4
   5   6   3 3199.72  102.23
   6   6   3 8468.63  296.57
   7   6   3 2433.48   75.26
   8   6   3 3240.56   94.42
   9   6   3 1102.96   60.40
  10   6   3 4077.65  179.74
  11   6   3 1596.13   70.80
  12   6   3  120.75   41.14
 -12   7   3   46.30   31.60
 -11   7   3 1086.70   94.93
 -10   7   3 3213.60  125.35
  -9   7   3 4757.19  125.31
  -8   7   3    6.87   25.55
  -7   7   3 10097.6   244.1
  -6   7   3 9270.92  170.27
  -5   7   3 3750.39  104.68
  -4   7   3  188.26   25.09
  -3   7   3 17305.8   203.6
  -2   7   3 31749.8   315.5
  -1   7   3 2107.26   35.28
   0   7   3 7103.76   84.04
   1   7   3 18531.5   250.7
   2   7   3 38749.2   489.1
   3   7   3   78.46   17.02
   4   7   3 11786.1   242.1
   5   7   3 16398.1   685.6
   6   7   3 5083.86  263.79
   7   7   3   29.42   31.41
   8   7   3 3113.50  308.88
   9   7   3 3469.12  257.45
  10   7   3  963.97   59.94
  11   7   3  647.61   94.52
  12   7   3 1480.61   90.61
 -12   8   3 1396.80   68.49
 -11   8   3 3805.88  486.70
 -10   8   3  268.08   94.23
  -9   8   3 3414.19  137.00
  -8   8   3 8078.90  204.70
  -7   8   3 4797.13  115.32
  -6   8   3  787.62   37.49
  -5   8   3 4038.79  120.14
  -4   8   3 13760.7   267.8
  -3   8   3 11966.3   335.5
  -2   8   3 4484.35   70.89
  -1   8   3 36591.6   466.3
   0   8   3 20396.7   387.4
   1   8   3 4819.19  133.39
   2   8   3 6123.90  113.46
   3   8   3 29513.4  1113.3
   4   8   3 10682.7   303.6
   5   8   3  380.65   44.93
   6   8   3 7548.83  323.93
   7   8   3 7063.43  225.72
   8   8   3 1765.93  126.39
   9   8   3  666.11   86.33
  10   8   3 4479.46  195.98
  11   8   3 2110.08  111.23
  12   8   3  125.96   34.56
 -12   9   3  138.92   25.03
 -11   9   3 1249.74  160.10
 -10   9   3 5831.74  235.79
  -9   9   3 4072.95  140.80
  -8   9   3  327.88   44.31
  -7   9   3 6389.26  246.27
  -6   9   3 7346.89  185.46
  -5   9   3 2476.03   58.65
  -4   9   3  138.70   19.11
  -3   9   3 10616.5   186.3
  -2   9   3 26376.5   566.6
  -1   9   3   78.38   19.15
   0   9   3 7670.51  134.34
   1   9   3 27478.2   343.6
   2   9   3 28875.0   401.1
   3   9   3 1085.30   63.16
   4   9   3 15154.9   295.9
   5   9   3 19331.6   496.6
   6   9   3 3133.10  175.54
   7   9   3  601.28   58.68
   8   9   3 3683.24  317.09
   9   9   3 3483.85  169.62
  10   9   3 1286.44  238.53
  11   9   3  863.53   72.30
 -12  10   3 1302.30   92.20
 -11  10   3 2861.88  254.46
 -10  10   3  749.21  100.99
  -9  10   3 2955.71  141.16
  -8  10   3 8710.19  294.76
  -7  10   3 1234.02   52.54
  -6  10   3  324.34   30.28
  -5  10   3 6023.66  123.92
  -4  10   3 19349.7   410.7
  -3  10   3 3520.51   83.03
  -2  10   3  617.42   20.47
  -1  10   3 19520.3   255.4
   0  10   3 18277.4   301.3
   1  10   3 1081.17   45.97
   2  10   3 3458.37   58.77
   3  10   3 21446.2   443.4
   4  10   3 14722.7   294.2
   5  10   3 1480.11   60.81
   6  10   3 9945.65  427.54
   7  10   3 3375.48  221.60
   8  10   3  817.22   92.07
   9  10   3  142.77   57.00
  10  10   3 3155.79  121.31
  11  10   3 2058.71  142.95
 -11  11   3  815.87   98.01
 -10  11   3 4353.14  141.90
  -9  11   3 3926.76  127.16
  -8  11   3  127.34   31.76
  -7  11   3 7432.83  196.65
  -6  11   3 4740.49   97.32
  -5  11   3  962.34   41.73
  -4  11   3  748.43   29.81
  -3  11   3 10052.1   143.1
  -2  11   3 10968.0   194.4
  -1  11   3  279.39   21.23
   0  11   3 3811.42   61.99
   1  11   3 19912.1   255.5
   2  11   3 21739.6   407.5
   3  11   3   48.34   28.12
   4  11   3 7295.78  208.51
   5  11   3 5007.69  260.46
   6  11   3 2977.02  171.17
   7  11   3  365.86   55.21
   8  11   3 2215.71  136.99
   9  11   3 1351.26  110.37
  10  11   3  878.38   91.03
 -11  12   3 1322.86  114.14
 -10  12   3  296.57   89.99
  -9  12   3 1738.12  141.16
  -8  12   3 4557.82  125.22
  -7  12   3 1864.03   60.77
  -6  12   3  609.27   66.57
  -5  12   3 2864.36   84.38
  -4  12   3 10359.9   247.8
  -3  12   3 3378.13   70.87
  -2  12   3  137.75   18.33
  -1  12   3 9868.02  114.11
   0  12   3 12099.4   276.1
   1  12   3 2915.96  116.08
   2  12   3 4833.45   86.75
   3  12   3 11466.6   405.6
   4  12   3 1565.38   65.45
   5  12   3  421.41   59.43
   6  12   3 6768.34  271.91
   7  12   3 3164.42  172.48
   8  12   3  975.36  106.26
   9  12   3  161.23   53.71
  10  12   3 1614.09   94.36
 -10  13   3 1941.86  231.66
  -9  13   3 1087.17  138.50
  -8  13   3   52.13   39.50
  -7  13   3 2441.58  218.10
  -6  13   3 3264.31  138.36
  -5  13   3 1082.22   54.53
  -4  13   3  442.50   34.93
  -3  13   3 6078.47  114.59
  -2  13   3 4093.49   97.21
  -1  13   3  460.01   32.89
   0  13   3  606.00   29.44
   1  13   3 8598.22  121.19
   2  13   3 10783.1   283.7
   3  13   3   43.73   30.75
   4  13   3 4183.76  209.21
   5  13   3 5214.76  273.34
   6  13   3 1076.72  113.13
   7  13   3  403.19   62.87
   8  13   3 1674.16   85.66
   9  13   3 1370.79   99.18
  10  13   3    0.00   66.62
 -10  14   3   16.10   33.21
  -9  14   3  936.66  221.01
  -8  14   3  959.55  105.85
  -7  14   3 1210.50   93.98
  -6  14   3   63.91   55.21
  -5  14   3 3037.38  189.91
  -4  14   3 5692.08  180.04
  -3  14   3  460.71   25.85
  -2  14   3  565.77   28.20
  -1  14   3 3738.83   68.71
   0  14   3 5812.47  123.75
   1  14   3   71.45   27.42
   2  14   3  907.12   42.28
   3  14   3 5947.43  205.35
   4  14   3 2326.95  128.89
   5  14   3  160.51   54.91
   6  14   3 3023.89  196.60
   7  14   3 1522.01  132.32
   8  14   3  550.81   62.87
   9  14   3  267.50   52.64
  -9  15   3  564.54   43.52
  -8  15   3   64.86   39.17
  -7  15   3  838.68   52.19
  -6  15   3 1032.58   66.10
  -5  15   3  647.91   67.32
  -4  15   3  105.04   34.49
  -3  15   3 1203.33   39.62
  -2  15   3 1745.02   74.69
  -1  15   3 1268.08   58.57
   0  15   3  101.54   28.54
   1  15   3 5592.30  107.07
   2  15   3 1235.16   57.25
   3  15   3   30.30   33.43
   4  15   3  613.63   95.36
   5  15   3 2001.96   74.05
   6  15   3  390.60   51.39
   7  15   3  125.14   40.21
   8  15   3  890.72   80.17
  -8  16   3  505.16   58.84
  -7  16   3  230.76   42.58
  -6  16   3  134.84   45.61
  -5  16   3  826.77   44.81
  -4  16   3 1358.73   67.82
  -3  16   3  680.68  155.35
  -2  16   3   97.28   31.07
  -1  16   3 1270.18   44.88
   0  16   3 1508.91   44.85
   1  16   3   77.86   31.61
   2  16   3 1087.98   85.25
   3  16   3 2248.09  122.13
   4  16   3  860.09   54.31
   5  16   3   59.46   35.89
   6  16   3 1212.50  102.61
   7  16   3  988.49   89.06
   8  16   3   26.70   50.39
  -7  17   3  290.82   39.13
  -6  17   3  407.07   48.90
  -5  17   3  195.46   51.02
  -4  17   3  178.65   37.48
  -3  17   3  266.09   39.63
  -2  17   3  450.02   39.35
  -1  17   3  321.17   32.11
   0  17   3   17.46   31.23
   1  17   3 1706.52   64.65
   2  17   3  378.05   45.75
   3  17   3   26.04   37.50
   4  17   3  374.51   46.04
   5  17   3  967.92   69.88
   6  17   3   22.50   46.99
   7  17   3  374.25   64.00
  -6  18   3   37.80   57.30
  -5  18   3  484.50   69.32
  -4  18   3   81.09   44.75
  -3  18   3   25.25   32.41
  -2  18   3  417.61   91.45
  -1  18   3  225.76   46.44
   0  18   3  986.57   56.79
   1  18   3  111.62   39.65
   2  18   3  818.96   49.33
   3  18   3  159.58   38.75
   4  18   3  133.88   37.34
   5  18   3   98.45   47.53
   6  18   3  308.40   60.34
  -5  19   3   43.94   97.12
  -4  19   3  211.06   57.28
  -3  19   3  178.29   43.13
  -2  19   3  122.07   43.40
  -1  19   3  776.00   85.88
   0  19   3    0.77   58.64
   1  19   3  555.21   65.49
   2  19   3    7.63   71.16
   3  19   3  127.25   79.43
   4  19   3    0.00   58.79
  -3  20   3   24.94   95.41
  -2  20   3  388.03   66.01
   2  20   3  181.28   89.63
 -13   0   4 2080.95  140.05
 -12   0   4 3601.21  133.20
 -11   0   4 1135.60   62.31
 -10   0   4 11160.4   226.9
  -9   0   4 3711.83  132.67
  -8   0   4 14303.0   372.7
  -7   0   4 8152.96  196.56
  -6   0   4 56680.3  9837.3
  -5   0   4 41142.4   792.6
  -4   0   4 9023.23  183.49
  -3   0   4 125245.   3529.
  -2   0   4 10054.6   176.0
  -1   0   4 32961.4   739.9
   0   0   4 8467.13  145.47
   1   0   4 24245.6   405.3
   2   0   4 27254.7   928.8
   3   0   4 2102.64   44.72
   4   0   4 5567.53  203.11
   5   0   4 9954.76  235.21
   6   0   4 45959.1   837.0
   7   0   4 4335.73  127.97
   8   0   4 6419.42  223.99
   9   0   4 7037.73  284.44
  10   0   4 1558.15   81.51
  11   0   4  198.71   45.08
  12   0   4 1899.06  101.68
 -13   1   4  112.16   30.11
 -12   1   4 4176.52   83.67
 -11   1   4 7159.79  138.97
 -10   1   4 5029.16  140.62
  -9   1   4  729.86   42.32
  -8   1   4 7735.25  143.03
  -7   1   4 42298.0   661.3
  -6   1   4 1415.07   90.48
  -5   1   4 24149.9   300.7
  -4   1   4 63085.6  1424.0
  -3   1   4 55098.6  1204.5
  -2   1   4 48394.0   717.2
  -1   1   4 14217.6   401.6
   0   1   4 44950.2   703.9
   1   1   4 104478.   1613.
   2   1   4 6212.54  123.57
   3   1   4 20619.7   501.1
   4   1   4  305.75   32.32
   5   1   4 23851.4   425.9
   6   1   4 13172.0   183.8
   7   1   4 31221.5   541.8
   8   1   4 6324.20  244.32
   9   1   4   95.51   35.76
  10   1   4 3781.18  127.77
  11   1   4 4902.27  114.61
  12   1   4  961.71   38.61
 -13   2   4 1905.46   66.41
 -12   2   4 1921.95   55.50
 -11   2   4   19.59   29.83
 -10   2   4 6359.99  112.97
  -9   2   4 10516.4   227.9
  -8   2   4 4934.18  101.22
  -7   2   4 3599.70  110.65
  -6   2   4 56418.8  1494.0
  -5   2   4 66536.6   853.0
  -4   2   4  382.65   23.83
  -3   2   4 14299.1   358.3
  -2   2   4 19656.4   417.1
  -1   2   4 142679.   2131.
   0   2   4 4541.18   54.72
   1   2   4 13734.1   275.5
   2   2   4 23220.5   414.0
   3   2   4 4522.14  102.92
   4   2   4 3653.86  107.77
   5   2   4 22628.5   559.1
   6   2   4 35711.9   492.0
   7   2   4 3133.24   87.55
   8   2   4 7530.60  235.86
   9   2   4 9240.57  326.82
  10   2   4 1151.77   52.88
  11   2   4    4.90   29.72
  12   2   4 2048.37   61.91
 -13   3   4    0.00   27.50
 -12   3   4 2399.94   68.66
 -11   3   4 6262.26  150.57
 -10   3   4 7775.90  168.74
  -9   3   4  343.32   36.29
  -8   3   4 4298.30  101.03
  -7   3   4 18054.5   321.5
  -6   3   4 3041.92   80.59
  -5   3   4 30846.2   598.9
  -4   3   4 83956.0  2755.1
  -3   3   4 36946.9  1174.9
  -2   3   4 6297.55  123.01
  -1   3   4 7631.35  101.15
   0   3   4 65342.1  1165.5
   1   3   4 6339.31  156.33
   2   3   4 4883.18  118.88
   3   3   4 15755.6   337.7
   4   3   4 11206.0   231.3
   5   3   4 9858.24  371.99
   6   3   4 7370.15  197.86
   7   3   4 23190.1   493.8
   8   3   4 5381.46  122.05
   9   3   4    0.00   32.43
  10   3   4 4791.80  189.48
  11   3   4 3560.64   83.21
  12   3   4  632.92   36.78
 -13   4   4 1251.47   65.09
 -12   4   4 2261.62   81.74
 -11   4   4   94.13   33.76
 -10   4   4 2631.98   83.82
  -9   4   4 5546.49  107.40
  -8   4   4 4230.95  142.70
  -7   4   4 4642.94  110.08
  -6   4   4 32068.9   851.7
  -5   4   4 16703.3   610.4
  -4   4   4 1405.99   89.91
  -3   4   4 12389.9   246.1
  -2   4   4 30409.2   668.6
  -1   4   4 3093.44   63.96
   0   4   4 2403.89   37.47
   1   4   4  525.67   16.89
   2   4   4 14292.1   283.2
   3   4   4 1728.99   42.22
   4   4   4  709.12   31.17
   5   4   4 12040.7   420.7
   6   4   4 22572.7   738.3
   7   4   4 4770.71  109.79
   8   4   4 2566.50   81.27
   9   4   4 5293.57  119.60
  10   4   4  686.44   83.12
  11   4   4   13.67   28.88
  12   4   4 1405.72   62.66
 -13   5   4    0.00   35.85
 -12   5   4 1331.53   65.19
 -11   5   4 2396.20  107.12
 -10   5   4 4232.73  167.08
  -9   5   4  190.16   33.27
  -8   5   4 7992.85  178.17
  -7   5   4 7510.17  138.13
  -6   5   4  547.70   42.18
  -5   5   4 8621.46  237.71
  -4   5   4 22134.3   585.3
  -3   5   4 7108.96  142.12
  -2   5   4  885.70   31.25
  -1   5   4 5578.35   71.97
   0   5   4 44086.2   710.4
   1   5   4 1243.58   49.73
   2   5   4 6335.73  108.41
   3   5   4 6545.00  175.31
   4   5   4 11973.6   319.9
   5   5   4 5743.87  173.02
   6   5   4 1282.87   62.14
   7   5   4 8592.72  310.39
   8   5   4 4658.17  167.35
   9   5   4  116.60   43.71
  10   5   4 2147.50  108.96
  11   5   4 2043.20   64.60
  12   5   4  242.25   44.22
 -13   6   4  504.71   53.22
 -12   6   4  653.72   41.82
 -11   6   4    0.00   35.64
 -10   6   4 1802.75   54.38
  -9   6   4 1666.05   69.89
  -8   6   4 3855.43   88.52
  -7   6   4  819.22   61.81
  -6   6   4 13258.0   428.7
  -5   6   4 1524.73   84.99
  -4   6   4  104.60   18.85
  -3   6   4 11597.3   154.8
  -2   6   4 20225.2   277.6
  -1   6   4 2321.27   49.01
   0   6   4  356.61   16.54
   1   6   4  114.25   11.32
   2   6   4 23926.1   888.7
   3   6   4    8.88   16.47
   4   6   4  293.80   29.18
   5   6   4 4586.69  198.14
   6   6   4 15353.1   550.3
   7   6   4  875.30   49.20
   8   6   4  968.79   74.33
   9   6   4 2876.57   86.14
  10   6   4  337.64   41.89
  11   6   4  172.45   49.21
  12   6   4  842.03   55.56
 -13   7   4    0.00   61.36
 -12   7   4  397.81   39.57
 -11   7   4  829.81   89.55
 -10   7   4  864.20   66.44
  -9   7   4  108.64   46.58
  -8   7   4 2056.01   55.18
  -7   7   4 5819.03  147.91
  -6   7   4 2669.57   64.64
  -5   7   4 2333.50   68.90
  -4   7   4 17398.4   955.6
  -3   7   4  564.43   43.12
  -2   7   4 7104.57   94.04
  -1   7   4  531.38   16.37
   0   7   4 1334.83   25.18
   1   7   4  343.54   19.61
   2   7   4  143.61   27.58
   3   7   4 3114.85  118.94
   4   7   4 7696.44  242.09
   5   7   4 2133.60   79.62
   6   7   4  393.90   43.60
   7   7   4 1826.79  113.23
   8   7   4 1811.48  150.52
   9   7   4  168.48   42.40
  10   7   4  545.76   64.97
  11   7   4 1046.13  134.46
  12   7   4    0.13   41.16
 -12   8   4    4.55   30.43
 -11   8   4  107.31   75.44
 -10   8   4   29.55   88.23
  -9   8   4 1315.64   95.17
  -8   8   4 2585.86   81.76
  -7   8   4  127.27   52.60
  -6   8   4 2966.56   84.85
  -5   8   4  383.38   27.83
  -4   8   4   21.51   21.03
  -3   8   4 4391.04   89.58
  -2   8   4 4533.39  125.82
  -1   8   4  743.96   21.92
   0   8   4  860.30   25.24
   1   8   4 1791.72   59.21
   2   8   4 7489.77  279.51
   3   8   4  568.08   36.41
   4   8   4 1806.68   64.01
   5   8   4  189.79   35.70
   6   8   4 1416.16  103.51
   7   8   4   59.73   52.97
   8   8   4  154.98   51.67
   9   8   4 1874.27  118.42
  10   8   4  217.11   55.11
  11   8   4   19.25   34.43
 -12   9   4   44.60   28.29
 -11   9   4   94.70   50.30
 -10   9   4  957.55   87.01
  -9   9   4  256.43   61.80
  -8   9   4 1550.81   73.41
  -7   9   4 1498.53   58.18
  -6   9   4  566.08   41.78
  -5   9   4   34.63   26.73
  -4   9   4 2776.37   66.31
  -3   9   4  362.32   21.02
  -2   9   4   30.19   21.65
  -1   9   4  109.73   18.64
   0   9   4 1248.36   33.65
   1   9   4  470.73   25.79
   2   9   4  734.37   33.75
   3   9   4   21.66   24.61
   4   9   4 1574.17   60.97
   5   9   4  145.92   46.08
   6   9   4   10.13   58.32
   7   9   4  463.40   55.20
   8   9   4  387.88   56.51
   9   9   4    0.00   47.87
  10   9   4   81.72   50.64
  11   9   4   39.31   48.59
 -12  10   4   28.36   44.62
 -11  10   4   68.99   56.84
 -10  10   4  247.30   44.73
  -9  10   4  300.19  114.55
  -8  10   4  301.35   52.44
  -7  10   4  198.73   29.98
  -6  10   4   87.70   23.69
  -5  10   4  425.57   29.89
  -4  10   4  412.55   26.84
  -3  10   4    0.00   18.53
  -2  10   4  297.74   16.57
  -1  10   4   20.37   17.14
   0  10   4  656.10   23.64
   1  10   4 1825.96   37.15
   2  10   4   57.95   23.98
   3  10   4 1124.26   57.52
   4  10   4 1235.61   57.09
   5  10   4  353.73   44.73
   6  10   4   39.35   45.40
   7  10   4   55.15   45.91
   8  10   4  119.39  101.19
   9  10   4  219.11   48.13
  10  10   4    4.63   45.49
  11  10   4  515.04   80.06
 -11  11   4  188.82   47.11
 -10  11   4   62.01   79.88
  -9  11   4   11.61   90.90
  -8  11   4  222.25   33.39
  -7  11   4  348.56   65.45
  -6  11   4  156.23   37.06
  -5  11   4   68.84   24.23
  -4  11   4  130.26   21.01
  -3  11   4    0.00   20.60
  -2  11   4  435.30   24.10
  -1  11   4  445.79   21.26
   0  11   4 2238.62   48.79
   1  11   4 2336.83   47.60
   2  11   4 1797.66   51.14
   3  11   4 2856.33   91.08
   4  11   4  310.54   45.54
   5  11   4   83.72   41.52
   6  11   4   22.83   52.93
   7  11   4  544.67   70.63
   8  11   4   69.96   53.13
   9  11   4   86.49   48.76
  10  11   4   76.33   46.01
 -11  12   4  177.50   45.93
 -10  12   4  727.63  109.16
  -9  12   4    1.67   42.20
  -8  12   4   17.44   50.44
  -7  12   4  352.38   38.55
  -6  12   4 1092.46   43.15
  -5  12   4 2057.24   70.04
  -4  12   4   55.49   29.23
  -3  12   4  501.51   26.50
  -2  12   4  837.06   27.74
  -1  12   4  598.90   27.88
   0  12   4 1134.13   42.74
   1  12   4 5818.07  135.52
   2  12   4 4996.73  127.96
   3  12   4   92.68   38.11
   4  12   4  301.22   47.59
   5  12   4  893.16   61.04
   6  12   4 1055.67   80.46
   7  12   4  122.16   90.27
   8  12   4  781.82   79.26
   9  12   4    0.00   41.54
  10  12   4  228.16   42.15
 -10  13   4   40.11   37.53
  -9  13   4  110.62  104.44
  -8  13   4   81.78   97.03
  -7  13   4  369.42   49.05
  -6  13   4  548.38   91.77
  -5  13   4  280.85   39.08
  -4  13   4 1571.78   48.86
  -3  13   4   89.63   23.09
  -2  13   4    0.00   24.06
  -1  13   4 1074.49   31.76
   0  13   4 7258.93  137.79
   1  13   4 2304.77   70.15
   2  13   4   97.39   30.07
   3  13   4  643.67   46.17
   4  13   4  363.23   47.59
   5  13   4   27.47   54.42
   6  13   4  415.04  130.98
   7  13   4 1941.23  104.99
   8  13   4  179.20   47.84
   9  13   4   53.79   46.61
 -10  14   4  812.42   67.52
  -9  14   4  326.10   42.83
  -8  14   4   55.91   46.73
  -7  14   4  158.95   46.08
  -6  14   4 2795.93  104.55
  -5  14   4  743.49   74.22
  -4  14   4    0.00   34.45
  -3  14   4   16.71   21.67
  -2  14   4 3931.65   97.31
  -1  14   4 1110.31   34.70
   0  14   4  588.92   38.63
   1  14   4 6033.52  117.18
   2  14   4 2234.14   64.14
   3  14   4   30.48   35.85
   4  14   4    4.59   40.35
   5  14   4  951.34  147.25
   6  14   4 1100.61  130.54
   7  14   4   78.97   51.93
   8  14   4  348.08   49.14
   9  14   4  105.11   46.71
  -9  15   4    9.81   36.67
  -8  15   4 1129.35   90.30
  -7  15   4  634.14   62.55
  -6  15   4  112.24   32.95
  -5  15   4  166.34   54.29
  -4  15   4 1727.96   59.87
  -3  15   4 1546.86   58.68
  -2  15   4   18.26   27.38
  -1  15   4 2094.62   48.08
   0  15   4 4979.85  132.86
   1  15   4 3348.39  117.60
   2  15   4  885.38   40.46
   3  15   4 2361.33   91.56
   4  15   4  489.35  122.19
   5  15   4   65.72   40.85
   6  15   4  141.93   48.43
   7  15   4 2433.85  115.92
   8  15   4  159.33   41.88
  -8  16   4   45.13   43.11
  -7  16   4   70.81   40.48
  -6  16   4 2184.35  124.08
  -5  16   4 2556.20   77.43
  -4  16   4  142.07   42.82
  -3  16   4  768.40  106.10
  -2  16   4 4413.43  109.80
  -1  16   4 1892.64   79.13
   0  16   4  257.75   30.40
   1  16   4 4357.97  149.51
   2  16   4 3298.12  233.66
   3  16   4  104.57   34.70
   4  16   4  459.20   43.14
   5  16   4 1453.14   81.91
   6  16   4 1355.43  172.76
   7  16   4   24.75   62.14
  -7  17   4  627.74   94.66
  -6  17   4  185.76   40.58
  -5  17   4  556.87   54.62
  -4  17   4 2914.65  104.51
  -3  17   4 1803.26   69.31
  -2  17   4  350.31   41.13
  -1  17   4  970.22   44.53
   0  17   4 3538.33  128.68
   1  17   4 1596.82   74.96
   2  17   4 1473.33   52.50
   3  17   4 2380.48  108.47
   4  17   4 1040.78   62.93
   5  17   4  341.64   50.76
   6  17   4  145.92   41.43
  -6  18   4 1552.84  265.07
  -5  18   4 1216.53   65.52
  -4  18   4   54.05   37.98
  -3  18   4  362.94   36.60
  -2  18   4 2804.48  151.98
  -1  18   4 2104.79  111.96
   0  18   4    6.92   39.70
   1  18   4 2521.90  103.95
   2  18   4 2755.25   91.63
   3  18   4  112.83   38.58
   4  18   4  343.81   42.09
   5  18   4 1011.09   87.39
  -5  19   4  117.09   91.31
  -4  19   4 1900.57  219.75
  -3  19   4 1214.41   91.96
  -2  19   4   31.72   56.37
  -1  19   4  962.75   86.71
   0  19   4 1675.04  120.84
   1  19   4 1149.75   94.84
   2  19   4  191.55   61.78
   3  19   4 1826.19  106.90
   4  19   4  781.26  109.01
  -2  20   4 1810.28  136.92
  -1  20   4  736.25   90.94
   2  20   4 1125.76  120.46
 -13   1   5    0.00   41.31
 -12   1   5  274.01   38.83
 -11   1   5  554.23   47.24
 -10   1   5  286.14   36.78
  -9   1   5  850.28   54.19
  -8   1   5 4089.76   90.75
  -7   1   5  727.24  105.86
  -6   1   5  472.28   44.27
  -5   1   5   18.91   22.64
  -4   1   5 9411.37  314.36
  -3   1   5 7842.98  124.61
  -2   1   5 29605.0   519.0
  -1   1   5 4832.84  123.70
   0   1   5 1350.20   21.32
   1   1   5 7033.38  119.69
   2   1   5 5416.27  123.26
   3   1   5 2377.58   60.49
   4   1   5   66.47   19.48
   5   1   5 3703.32   70.10
   6   1   5  104.47   25.49
   7   1   5   96.21   27.00
   8   1   5  160.84   32.63
   9   1   5  376.25   38.43
  10   1   5   52.06   35.19
  11   1   5   31.58   27.75
  12   1   5    0.00   30.82
 -13   2   5  222.54   34.94
 -12   2   5  170.69   36.76
 -11   2   5  315.65   39.18
 -10   2   5   74.24   36.92
  -9   2   5  426.54   51.54
  -8   2   5 5002.14  109.87
  -7   2   5 5286.31  107.29
  -6   2   5  882.24   87.49
  -5   2   5  241.76   20.71
  -4   2   5 1048.09   23.14
  -3   2   5 14597.3   211.0
  -2   2   5 2949.75   88.93
  -1   2   5 5536.94   83.53
   0   2   5 35185.0   405.4
   1   2   5 2535.88   50.03
   2   2   5  116.53   13.96
   3   2   5    3.23   19.40
   4   2   5 6463.56  219.54
   5   2   5  642.07   32.44
   6   2   5  145.34   28.28
   7   2   5  610.38   43.72
   8   2   5  698.17   40.81
   9   2   5  897.47   65.42
  10   2   5  274.49   57.95
  11   2   5  308.87   32.18
  12   2   5    0.00   33.12
 -13   3   5  581.22   35.50
 -12   3   5  412.01   38.55
 -11   3   5  444.69   55.39
 -10   3   5 1686.54   78.26
  -9   3   5 3336.16   78.27
  -8   3   5 1876.08   64.27
  -7   3   5  774.92  120.42
  -6   3   5 7961.65  130.92
  -5   3   5 3053.04   55.03
  -4   3   5 6732.30  202.39
  -3   3   5 6657.17  225.94
  -2   3   5 20787.1   459.3
  -1   3   5  438.81   10.65
   0   3   5 1691.84   28.72
   1   3   5 3488.18   73.77
   2   3   5 7938.34  173.63
   3   3   5 4205.64   97.92
   4   3   5   67.42   20.54
   5   3   5 1304.54   62.04
   6   3   5 2320.16  120.46
   7   3   5 1747.34   68.69
   8   3   5   41.23   34.52
   9   3   5  822.20   49.60
  10   3   5 1691.13  102.23
  11   3   5   95.77   28.88
  12   3   5  200.85   35.64
 -13   4   5   25.71   43.64
 -12   4   5  956.95   46.67
 -11   4   5 1548.13   64.10
 -10   4   5 1075.89   59.60
  -9   4   5  341.72   43.55
  -8   4   5 11938.5   274.7
  -7   4   5 5211.86   99.31
  -6   4   5  248.69   33.43
  -5   4   5  846.69   26.21
  -4   4   5 9689.26  346.07
  -3   4   5 24900.4   553.0
  -2   4   5 5716.10  100.35
  -1   4   5 10643.8   158.5
   0   4   5 8691.57  172.46
   1   4   5 17807.6   367.7
   2   4   5  648.34   18.86
   3   4   5 2908.97   88.71
   4   4   5 7856.39  211.28
   5   4   5 4685.29  200.26
   6   4   5  799.13   42.99
   7   4   5 1874.89   70.15
   8   4   5 1524.31   69.91
   9   4   5 1836.84   93.14
  10   4   5   16.14   34.02
  11   4   5 1781.78   58.02
  12   4   5  119.99   31.99
 -13   5   5 1756.41  127.73
 -12   5   5  607.07   42.64
 -11   5   5   65.72   37.29
 -10   5   5 1505.52   92.29
  -9   5   5 5038.53   91.95
  -8   5   5 5235.90  121.79
  -7   5   5  699.98   41.97
  -6   5   5 12642.0   405.4
  -5   5   5 10049.0   377.4
  -4   5   5 22813.7   692.3
  -3   5   5  633.07   25.54
  -2   5   5 24115.2   426.5
  -1   5   5 7131.60  138.41
   0   5   5  943.54   32.53
   1   5   5 1828.00   41.48
   2   5   5 25572.7   570.0
   3   5   5 9381.41  291.44
   4   5   5 1395.82   47.81
   5   5   5 12459.6   225.5
   6   5   5 9705.50  318.34
   7   5   5 1719.55   81.49
   8   5   5    2.04   35.53
   9   5   5 1140.32   54.78
  10   5   5 2109.09   99.38
  11   5   5  311.08   42.64
  12   5   5  831.83   53.03
 -13   6   5   15.42   68.48
 -12   6   5 1553.54  108.92
 -11   6   5 2323.13   92.80
 -10   6   5 2090.10   63.52
  -9   6   5  496.48   37.13
  -8   6   5 6118.52  180.87
  -7   6   5 9930.71  233.09
  -6   6   5 2947.52  148.64
  -5   6   5  914.83   65.98
  -4   6   5 27196.4   420.4
  -3   6   5 38588.9   669.0
  -2   6   5 2819.23   57.84
  -1   6   5 14082.6   185.6
   0   6   5 11531.9   153.4
   1   6   5 16185.0   409.1
   2   6   5 1199.77   66.98
   3   6   5 15544.3   558.0
   4   6   5 18901.7   797.3
   5   6   5 4279.73  171.43
   6   6   5  789.60   49.13
   7   6   5 2530.40  150.34
   8   6   5 3244.25  184.15
   9   6   5  953.99   49.24
  10   6   5  166.65   43.35
  11   6   5 2461.66  102.30
  12   6   5  975.69   78.84
 -13   7   5 1635.84  122.17
 -12   7   5 1651.89   75.04
 -11   7   5  104.59   69.47
 -10   7   5 1071.56   72.07
  -9   7   5 8080.32  277.78
  -8   7   5 7475.12  272.68
  -7   7   5  224.02   64.82
  -6   7   5 7711.20  155.21
  -5   7   5 13937.0   635.5
  -4   7   5 12618.2   355.5
  -3   7   5  810.58   38.19
  -2   7   5 29852.9   346.4
  -1   7   5 16171.1   336.6
   0   7   5 1819.04   47.07
   1   7   5 5833.47   96.85
   2   7   5 11737.4   265.1
   3   7   5 9267.11  290.60
   4   7   5  397.52   44.16
   5   7   5 20777.7   389.3
   6   7   5 8301.30  595.81
   7   7   5 1180.95  111.29
   8   7   5  144.82   57.67
   9   7   5 2573.76  190.10
  10   7   5 2973.20  199.18
  11   7   5   55.07   37.78
 -12   8   5 1158.19   58.89
 -11   8   5 3355.35  161.05
 -10   8   5 2100.26  174.93
  -9   8   5 1197.62   71.50
  -8   8   5 7081.63  189.25
  -7   8   5 15486.9   346.7
  -6   8   5  797.97   41.39
  -5   8   5  186.00   24.81
  -4   8   5 10223.7   285.0
  -3   8   5 48479.5   848.8
  -2   8   5 8624.13  317.50
  -1   8   5 9530.01  182.54
   0   8   5 29346.6   698.7
   1   8   5 9008.32  239.46
   2   8   5  697.10   67.05
   3   8   5 13403.2   485.4
   4   8   5 30025.1  1086.1
   5   8   5 4011.48  144.39
   6   8   5  801.08   65.10
   7   8   5 3358.92  139.29
   8   8   5 2597.18  198.04
   9   8   5 1644.10  113.41
  10   8   5  737.82  100.50
  11   8   5 2469.96  107.38
 -12   9   5 1785.70  106.41
 -11   9   5  237.26   49.88
 -10   9   5 1077.45  105.09
  -9   9   5 7528.79  414.17
  -8   9   5 7075.08  237.69
  -7   9   5  154.88   47.81
  -6   9   5 6034.22  123.16
  -5   9   5 7127.92  224.46
  -4   9   5 11223.0   395.3
  -3   9   5  103.62   17.82
  -2   9   5 33873.9   705.9
  -1   9   5 19838.5   598.1
   0   9   5 1275.12   62.87
   1   9   5 13282.3   200.6
   2   9   5 17481.0   422.9
   3   9   5 14857.0   470.0
   4   9   5  140.43   47.38
   5   9   5 8388.53  288.06
   6   9   5 7726.37  290.94
   7   9   5  482.99  127.26
   8   9   5  138.95   58.45
   9   9   5 3887.63  125.10
  10   9   5 4607.75  179.20
  11   9   5  158.24   35.53
 -12  10   5 1024.45   76.98
 -11  10   5 3925.99  113.51
 -10  10   5 1398.04   93.35
  -9  10   5  139.32   90.66
  -8  10   5 4815.71  188.50
  -7  10   5 11504.7   199.5
  -6  10   5 1567.23   66.36
  -5  10   5  813.19   42.04
  -4  10   5 3939.93   77.98
  -3  10   5 28698.3   474.6
  -2  10   5 2432.33   73.58
  -1  10   5 13200.5   241.7
   0  10   5 17103.7   306.3
   1  10   5 12865.6   295.9
   2  10   5  628.00   29.34
   3  10   5 8247.16  315.45
   4  10   5 8761.11  272.36
   5  10   5 4067.26  138.71
   6  10   5   12.76   51.32
   7  10   5 3548.25  131.03
   8  10   5 1970.47  181.92
   9  10   5 1440.33  110.45
  10  10   5  121.27   38.18
 -11  11   5   29.41   41.50
 -10  11   5 1831.53   90.99
  -9  11   5 5369.81  206.93
  -8  11   5 2700.56   87.24
  -7  11   5  562.12   54.88
  -6  11   5 4993.30  123.79
  -5  11   5 4028.93  137.96
  -4  11   5 7520.35  261.18
  -3  11   5  714.03   25.42
  -2  11   5 20833.4   406.8
  -1  11   5 13604.3   443.6
   0  11   5  597.07   24.39
   1  11   5 4874.60  108.90
   2  11   5 14296.0   412.0
   3  11   5 6946.86  245.97
   4  11   5  105.20   41.17
   5  11   5  843.14   70.17
   6  11   5 4965.08  235.34
   7  11   5  371.09  105.24
   8  11   5   64.32   53.79
   9  11   5 1722.91   80.71
  10  11   5 3741.34  136.61
 -11  12   5 1664.86   82.66
 -10  12   5 1174.02  128.69
  -9  12   5  281.25   94.89
  -8  12   5 3433.09  218.98
  -7  12   5 6717.85  123.34
  -6  12   5 3527.48  159.20
  -5  12   5   50.69   33.21
  -4  12   5 6229.09  161.99
  -3  12   5 13059.6   333.7
  -2  12   5 1892.72   93.45
  -1  12   5 5290.50   90.29
   0  12   5 24114.2   463.5
   1  12   5 12130.1   247.4
   2  12   5  147.52   26.90
   3  12   5 5068.87  204.79
   4  12   5 8135.55  173.81
   5  12   5 1575.97   95.37
   6  12   5  470.60   65.79
   7  12   5 1052.78   81.71
   8  12   5 2997.76  152.78
   9  12   5  492.92   48.90
  10  12   5  164.22   61.89
 -10  13   5  496.59   74.82
  -9  13   5 1667.92  295.39
  -8  13   5 1721.43  160.91
  -7  13   5  140.05   56.94
  -6  13   5 1798.64   75.05
  -5  13   5 7110.35  228.44
  -4  13   5 4715.23  176.69
  -3  13   5 1703.35   41.22
  -2  13   5 11144.9   229.7
  -1  13   5 15176.0   371.4
   0  13   5 1732.89   80.41
   1  13   5 2817.03   58.13
   2  13   5 10036.4   229.3
   3  13   5 5175.72  134.42
   4  13   5  384.85   44.57
   5  13   5 2083.27   76.63
   6  13   5 2253.17  297.38
   7  13   5  726.22   66.44
   8  13   5   50.93   44.84
   9  13   5 1519.91   93.79
 -10  14   5  448.22   61.25
  -9  14   5  119.78   34.62
  -8  14   5  894.54  287.22
  -7  14   5 3185.72  190.12
  -6  14   5 1035.50   82.68
  -5  14   5   54.24   29.73
  -4  14   5 5207.15  134.72
  -3  14   5 6531.46  191.29
  -2  14   5  953.55   46.23
  -1  14   5  554.33   31.04
   0  14   5 6496.92  160.34
   1  14   5 3370.35   77.83
   2  14   5   47.46   31.49
   3  14   5 3249.76   97.91
   4  14   5 3425.80  138.11
   5  14   5  960.32  112.01
   6  14   5   16.03   46.60
   7  14   5  624.59   71.31
   8  14   5 1015.35   68.13
   9  14   5  296.84   72.94
  -9  15   5  560.99  104.74
  -8  15   5  244.97   38.26
  -7  15   5    0.14   38.66
  -6  15   5 1049.24   50.06
  -5  15   5 1513.78   72.88
  -4  15   5  263.55   38.16
  -3  15   5   77.60   33.98
  -2  15   5 3959.11  115.10
  -1  15   5 4122.45  131.20
   0  15   5  594.93   32.98
   1  15   5  687.70   36.30
   2  15   5 2735.70  103.37
   3  15   5 1544.98  111.81
   4  15   5   66.48   40.70
   5  15   5  271.18   50.59
   6  15   5  785.37  103.23
   7  15   5  243.61   80.59
   8  15   5   64.05   40.01
  -8  16   5  190.18   31.83
  -7  16   5  438.65   60.68
  -6  16   5  755.92   57.06
  -5  16   5   40.67   41.64
  -4  16   5 1345.76   65.52
  -3  16   5 2096.18  160.28
  -2  16   5  826.40  120.45
  -1  16   5   40.05   38.33
   0  16   5 2025.94  112.39
   1  16   5 1074.20  155.84
   2  16   5  295.56   57.11
   3  16   5 1064.13   54.51
   4  16   5  854.49   48.74
   5  16   5  124.81   41.35
   6  16   5   26.71   36.52
   7  16   5  248.70   49.68
  -7  17   5  357.89   51.51
  -6  17   5   96.35   36.10
  -5  17   5  790.83   40.97
  -4  17   5  280.10   38.98
  -3  17   5   26.95   38.61
  -2  17   5 1267.01   47.41
  -1  17   5 1909.39   83.15
   0  17   5  724.59   42.46
   1  17   5 1071.49   47.52
   2  17   5  938.21   51.60
   3  17   5  163.23   36.42
   4  17   5  102.71   43.18
   5  17   5   37.78   38.86
   6  17   5  407.24   53.86
  -6  18   5  488.68  105.15
  -5  18   5  179.15   39.25
  -4  18   5   81.98   33.68
  -3  18   5  248.69   38.66
  -2  18   5  153.03   42.61
  -1  18   5  163.52   50.16
   0  18   5  617.92   47.87
   1  18   5  787.58   58.64
   2  18   5  419.59   42.24
   3  18   5  160.53   42.01
   4  18   5   24.00   35.16
   5  18   5   33.21   54.72
  -5  19   5  102.22   81.05
  -4  19   5   99.05   99.11
  -3  19   5   19.28   56.76
  -2  19   5   57.82   57.76
  -1  19   5  478.32   81.68
   0  19   5  167.43   62.40
   1  19   5  410.78   68.48
   2  19   5  160.82   47.86
   3  19   5   53.43   53.99
  -2  20   5   94.81   63.94
  -1  20   5  102.78   68.07
 -13   0   6  606.63  102.78
 -12   0   6 4055.44  145.74
 -11   0   6 5404.25  234.64
 -10   0   6 11521.3   251.4
  -9   0   6 18144.7   414.4
  -8   0   6 8287.85  224.21
  -7   0   6 2717.99  127.68
  -6   0   6 21379.0   902.3
  -5   0   6 85605.7  1523.5
  -4   0   6   18.26   26.27
  -3   0   6 2133.35   44.15
  -2   0   6 1192.99   35.65
  -1   0   6 30993.9   748.4
   0   0   6 5512.25   80.78
   1   0   6 30905.6   642.9
   2   0   6 64317.2  1339.3
   3   0   6 61615.4  4248.1
   4   0   6 20029.6  1203.1
   5   0   6 7354.47  218.89
   6   0   6 24593.5  1053.9
   7   0   6 11567.3   373.3
   8   0   6  552.06   81.21
   9   0   6 5110.63  307.93
  10   0   6 4588.24  258.47
  11   0   6  543.59   49.11
  12   0   6   14.22   84.34
 -13   1   6 3348.92  132.60
 -12   1   6  116.28   34.19
 -11   1   6 10279.7   181.7
 -10   1   6 9813.21  149.85
  -9   1   6 2158.89   66.24
  -8   1   6 9823.76  189.62
  -7   1   6 31396.7   497.0
  -6   1   6 16126.5   376.9
  -5   1   6  200.20   21.90
  -4   1   6 48352.4   704.0
  -3   1   6 31096.5   487.4
  -2   1   6 2267.63   46.10
  -1   1   6  512.56   13.21
   0   1   6 20562.5   280.3
   1   1   6 59351.2  1258.6
   2   1   6 34200.5   861.7
   3   1   6 3355.68  144.81
   4   1   6 31621.0  1192.8
   5   1   6 14862.5   534.3
   6   1   6 5424.97  135.32
   7   1   6 9440.38  285.19
   8   1   6 11240.0   480.8
   9   1   6 1016.26  112.60
  10   1   6   13.76   47.92
  11   1   6  743.29   38.27
  12   1   6 2051.53   73.39
 -13   2   6  346.84   70.82
 -12   2   6 3644.90   92.90
 -11   2   6 5462.47  127.67
 -10   2   6 2211.47   63.64
  -9   2   6 13922.0   321.0
  -8   2   6 15882.2   272.0
  -7   2   6 2191.42   59.82
  -6   2   6 11816.2   234.0
  -5   2   6 61955.4  1254.7
  -4   2   6 24768.4   478.4
  -3   2   6 2558.06   49.93
  -2   2   6 38709.4  1497.9
  -1   2   6 8528.71  141.77
   0   2   6 29493.9   554.7
   1   2   6 2033.75   47.92
   2   2   6 127795.   2318.
   3   2   6 55205.3   820.4
   4   2   6 12209.5   390.4
   5   2   6 8893.93  202.81
   6   2   6 33501.1   512.2
   7   2   6 13021.3   351.6
   8   2   6  200.62   33.76
   9   2   6 4207.85  250.92
  10   2   6 2859.65  115.93
  11   2   6  373.74   32.07
  12   2   6   35.27   26.09
 -13   3   6 1718.31   69.61
 -12   3   6  270.70   35.80
 -11   3   6 6810.59  179.66
 -10   3   6 8850.82  143.65
  -9   3   6 6178.80  154.09
  -8   3   6 5791.36  129.85
  -7   3   6 25500.1   557.8
  -6   3   6 7489.35  200.95
  -5   3   6  247.58   17.04
  -4   3   6 18002.2   393.9
  -3   3   6 79034.5  2206.9
  -2   3   6 2189.54   74.79
  -1   3   6  827.79   20.10
   0   3   6 14807.2   193.9
   1   3   6 83862.4  1523.9
   2   3   6 7975.04  185.70
   3   3   6 6256.92  126.23
   4   3   6 16253.5   332.1
   5   3   6 11955.3   252.7
   6   3   6 5611.10  269.37
   7   3   6 12699.3   358.8
   8   3   6 7381.54  221.74
   9   3   6 1349.67   79.96
  10   3   6  658.44   41.51
  11   3   6  917.57   42.88
  12   3   6  752.14   38.55
 -13   4   6  794.13   70.70
 -12   4   6 3863.96  111.98
 -11   4   6 2435.86   85.87
 -10   4   6 1256.51   65.22
  -9   4   6 11766.2   188.6
  -8   4   6 8897.52  217.89
  -7   4   6   89.58   29.72
  -6   4   6 6402.23  146.90
  -5   4   6 45161.2  1620.6
  -4   4   6 1051.24   46.96
  -3   4   6  688.01   23.22
  -2   4   6 13230.0   232.0
  -1   4   6 23457.6   320.5
   0   4   6 22289.8   416.8
   1   4   6 3118.11   66.31
   2   4   6 13790.1   224.9
   3   4   6 17891.0   498.5
   4   4   6 5241.86  104.77
   5   4   6 6616.26  154.75
   6   4   6 11544.0   575.3
   7   4   6 16832.1   424.2
   8   4   6  154.14   34.73
   9   4   6 4074.43  178.09
  10   4   6 1357.44   53.69
  11   4   6  181.61   44.46
  12   4   6   27.84   26.97
 -13   5   6  485.95   99.52
 -12   5   6    0.07   29.04
 -11   5   6 4501.77   98.41
 -10   5   6 6871.88  498.50
  -9   5   6 1071.52   51.74
  -8   5   6 4485.35  119.65
  -7   5   6 7007.33  278.26
  -6   5   6 8716.18  273.86
  -5   5   6 2435.43   65.54
  -4   5   6 12175.1   199.1
  -3   5   6 19614.5   388.6
  -2   5   6 4939.28   85.64
  -1   5   6   52.67    9.52
   0   5   6  340.81   15.53
   1   5   6 22548.3   524.0
   2   5   6 4983.99  155.03
   3   5   6  301.28   19.52
   4   5   6 8797.01  319.56
   5   5   6 10333.2   168.8
   6   5   6 3229.75   90.87
   7   5   6 5262.69  242.98
   8   5   6 2998.69  149.55
   9   5   6  276.45   38.13
  10   5   6  114.55   32.38
  11   5   6  456.86   41.49
  12   5   6  673.80   70.45
 -13   6   6  291.43   77.24
 -12   6   6 1525.84   67.87
 -11   6   6 1558.93  102.33
 -10   6   6  635.56   85.41
  -9   6   6 3584.78   86.89
  -8   6   6 6286.76  203.60
  -7   6   6    0.00   37.30
  -6   6   6 2190.20  102.95
  -5   6   6 15874.7   384.4
  -4   6   6 2261.53   74.39
  -3   6   6  185.61   13.54
  -2   6   6 1768.09   31.15
  -1   6   6 10507.2   162.2
   0   6   6 6899.90  110.55
   1   6   6  156.01   20.54
   2   6   6 3115.20  124.34
   3   6   6 18193.6   540.7
   4   6   6 3394.36  125.94
   5   6   6 3926.36   90.95
   6   6   6 3811.03  281.73
   7   6   6 5454.98  309.85
   8   6   6  406.09   44.64
   9   6   6 1025.65   80.62
  10   6   6  761.65   91.58
  11   6   6  313.46   42.94
 -13   7   6  446.03   90.20
 -12   7   6    8.21   32.52
 -11   7   6 1558.28  106.17
 -10   7   6 1344.30  130.21
  -9   7   6  813.62   91.43
  -8   7   6 1728.34  101.11
  -7   7   6 4951.40  207.40
  -6   7   6 2145.48  113.03
  -5   7   6 2498.77   65.41
  -4   7   6 2373.66  125.21
  -3   7   6 4861.78  109.75
  -2   7   6 2922.71   82.66
  -1   7   6 1497.32   25.19
   0   7   6  407.56   19.23
   1   7   6 11980.4   279.3
   2   7   6 1929.80   83.52
   3   7   6  481.58   48.06
   4   7   6 2720.51   78.53
   5   7   6 5860.90  155.19
   6   7   6  114.58   47.43
   7   7   6 1290.72   89.83
   8   7   6  635.90   66.60
   9   7   6  401.83  121.70
  10   7   6    0.00   56.61
  11   7   6  460.85   46.64
 -12   8   6  524.58   43.41
 -11   8   6 1280.88   73.16
 -10   8   6  175.67  108.46
  -9   8   6  551.19   49.11
  -8   8   6 1729.56   68.33
  -7   8   6  318.15   41.61
  -6   8   6 2490.62   75.67
  -5   8   6 10357.9   291.2
  -4   8   6   41.56   21.23
  -3   8   6   76.46   24.81
  -2   8   6  507.94   31.89
  -1   8   6 3093.82   60.49
   0   8   6  574.86   31.83
   1   8   6  591.83   43.74
   2   8   6  432.50   48.32
   3   8   6 9085.31  338.21
   4   8   6 4648.23  290.58
   5   8   6 4296.26  198.41
   6   8   6  208.25   64.28
   7   8   6  390.05   72.26
   8   8   6  226.59   60.91
   9   8   6  580.74   58.94
  10   8   6  136.61   77.10
  11   8   6  111.23   29.77
 -12   9   6   87.91   56.25
 -11   9   6   12.76   35.16
 -10   9   6  126.01   56.96
  -9   9   6  346.56   66.81
  -8   9   6  823.42   57.00
  -7   9   6 2477.01  107.47
  -6   9   6  309.07   32.24
  -5   9   6 1070.04   35.51
  -4   9   6   14.94   22.96
  -3   9   6  757.86   27.88
  -2   9   6  132.57   18.64
  -1   9   6 1550.36   43.74
   0   9   6  229.07   25.66
   1   9   6 2578.22   73.37
   2   9   6 1871.53   58.82
   3   9   6   24.76   36.50
   4   9   6 2513.45  108.30
   5   9   6 2191.96  130.10
   6   9   6  129.43   65.16
   7   9   6  683.20   79.84
   8   9   6   21.60   83.95
   9   9   6  126.02   47.02
  10   9   6   76.74   45.31
  11   9   6   10.12   64.80
 -12  10   6    0.00   30.63
 -11  10   6   81.85   53.11
 -10  10   6  665.13   60.06
  -9  10   6    0.00   79.44
  -8  10   6  687.69   48.22
  -7  10   6 1167.03   48.11
  -6  10   6  709.20   31.65
  -5  10   6   27.16   27.78
  -4  10   6  124.78   21.90
  -3  10   6 1182.62   57.86
  -2  10   6  375.95   19.77
  -1  10   6  118.91   18.88
   0  10   6  728.94   29.98
   1  10   6  259.62   26.75
   2  10   6  241.80   31.80
   3  10   6  605.59   40.25
   4  10   6 1495.36   61.88
   5  10   6 1752.44   87.59
   6  10   6    0.00   68.12
   7  10   6   95.96   54.18
   8  10   6    0.00   57.54
   9  10   6   71.62   60.24
  10  10   6   26.00   39.62
 -11  11   6  402.34   50.05
 -10  11   6  534.34   83.58
  -9  11   6  247.52   69.04
  -8  11   6 1473.26   84.25
  -7  11   6   68.83   32.14
  -6  11   6 1337.17   71.12
  -5  11   6 1868.80   80.13
  -4  11   6 1388.25   44.42
  -3  11   6 1015.37   29.64
  -2  11   6   98.44   21.07
  -1  11   6  830.29   31.17
   0  11   6 2320.16   48.64
   1  11   6 3348.54   78.49
   2  11   6  264.46   35.83
   3  11   6   73.74   36.13
   4  11   6  326.16   45.02
   5  11   6  237.01   58.52
   6  11   6  848.72   98.05
   7  11   6   40.59   72.17
   8  11   6   13.17   51.42
   9  11   6  219.83   45.02
  10  11   6   66.93   47.06
 -11  12   6    0.00   50.21
 -10  12   6   27.97   35.01
  -9  12   6  113.80   91.22
  -8  12   6  236.70   47.68
  -7  12   6  467.37   43.74
  -6  12   6   33.09   40.94
  -5  12   6 1491.46   56.57
  -4  12   6 3349.14  115.80
  -3  12   6  218.62   29.27
  -2  12   6  356.17   26.59
  -1  12   6 1509.93   51.84
   0  12   6 1090.51   38.80
   1  12   6  786.86   36.60
   2  12   6 4743.59  137.37
   3  12   6  223.90   34.02
   4  12   6  101.13   46.95
   5  12   6    0.00   49.36
   6  12   6  200.59   84.56
   7  12   6    2.45   36.46
   8  12   6  179.06   81.97
   9  12   6  363.75   50.19
 -10  13   6  194.11   49.47
  -9  13   6   89.28   38.00
  -8  13   6   54.19   56.63
  -7  13   6 1207.01   70.85
  -6  13   6  782.02   38.61
  -5  13   6 1007.79   47.50
  -4  13   6  265.90   31.46
  -3  13   6 3082.07   94.85
  -2  13   6    2.74   25.59
  -1  13   6  201.40   31.65
   0  13   6 1275.85   40.51
   1  13   6 6984.15  168.61
   2  13   6  645.96   40.13
   3  13   6 1047.67   57.17
   4  13   6    0.24   37.96
   5  13   6  115.94   58.01
   6  13   6  341.08   62.69
   7  13   6   88.30   45.93
   8  13   6  880.13   69.37
   9  13   6  115.52   40.08
 -10  14   6   93.99   41.32
  -9  14   6 1083.32   77.88
  -8  14   6  146.09   37.94
  -7  14   6    2.01   30.67
  -6  14   6   40.18   82.03
  -5  14   6 3327.61   80.28
  -4  14   6  676.40   46.74
  -3  14   6  571.12   36.22
  -2  14   6  952.01   38.43
  -1  14   6 2189.09   57.41
   0  14   6  932.20   40.44
   1  14   6  385.04   31.79
   2  14   6 1696.19   53.46
   3  14   6 1228.49   53.92
   4  14   6  140.03   52.80
   5  14   6   10.76   48.22
   6  14   6  304.87   57.27
   7  14   6 1894.35  121.54
   8  14   6   13.46   37.81
  -9  15   6   99.41   42.11
  -8  15   6    4.56   28.16
  -7  15   6  617.15  108.18
  -6  15   6 2410.15   85.25
  -5  15   6   41.15   32.88
  -4  15   6  920.60   87.03
  -3  15   6 3075.06  153.43
  -2  15   6 1131.58   61.71
  -1  15   6  179.87   27.45
   0  15   6 2309.48   60.09
   1  15   6 6411.24  188.52
   2  15   6  119.19   34.92
   3  15   6  587.00  133.34
   4  15   6  381.39   49.19
   5  15   6  835.14   90.51
   6  15   6  321.73   76.88
   7  15   6  253.67   45.89
   8  15   6  837.63   96.46
  -8  16   6  198.91   84.85
  -7  16   6  507.92   42.93
  -6  16   6  171.70   42.82
  -5  16   6 3991.01  120.42
  -4  16   6 2231.33   67.85
  -3  16   6   20.15   36.69
  -2  16   6 1238.39   98.45
  -1  16   6 5958.70  212.39
   0  16   6 1148.09  133.77
   1  16   6 1187.52   94.78
   2  16   6 2887.71  146.76
   3  16   6 1439.82   53.24
   4  16   6    0.00   37.24
   5  16   6  114.77   39.79
   6  16   6  931.97   86.18
   7  16   6 1145.18   78.60
  -7  17   6  341.96   98.04
  -6  17   6 1278.60  164.25
  -5  17   6  234.63   36.79
  -4  17   6 1653.68   67.20
  -3  17   6 4969.14  163.91
  -2  17   6 1576.28   68.36
  -1  17   6  252.60   33.46
   0  17   6 1338.35   70.19
   1  17   6 4583.81  165.78
   2  17   6  191.31   36.10
   3  17   6  891.24   78.36
   4  17   6  631.46   61.00
   5  17   6  948.75  106.37
   6  17   6  159.37   53.98
  -6  18   6  255.09   91.05
  -5  18   6 2410.82  185.42
  -4  18   6 2153.04   84.15
  -3  18   6   60.36   33.90
  -2  18   6 1365.86   93.54
  -1  18   6 2321.06   89.78
   0  18   6  754.69   68.89
   1  18   6  209.91   41.10
   2  18   6 2094.57   82.81
   3  18   6  710.71   61.44
   4  18   6   90.36   35.51
   5  18   6  270.94   76.73
  -4  19   6  973.41   69.92
  -3  19   6 1903.07  102.37
  -2  19   6 1212.05   85.63
  -1  19   6    1.25   67.90
   0  19   6 1400.46   92.40
   1  19   6 1501.48  103.07
   2  19   6  119.64   69.30
   3  19   6  176.07   54.15
  -1  20   6 1521.55  114.07
 -13   1   7    0.00   36.40
 -12   1   7  245.85   35.84
 -11   1   7    8.82   60.59
 -10   1   7  666.65   50.74
  -9   1   7   23.10   30.95
  -8   1   7  865.49   39.70
  -7   1   7   94.71   26.64
  -6   1   7 1289.94   40.07
  -5   1   7 3359.28   57.09
  -4   1   7 7749.80  127.23
  -3   1   7 1312.70   26.31
  -2   1   7 6625.52   94.66
  -1   1   7 1110.64   17.66
   0   1   7 1970.92   25.44
   1   1   7  230.76   13.67
   2   1   7 2877.31   82.19
   3   1   7  648.16   25.06
   4   1   7  482.93   30.14
   5   1   7    5.36   21.59
   6   1   7 1529.99   49.83
   7   1   7  919.56   43.68
   8   1   7  146.99   31.38
   9   1   7   37.36   55.67
  10   1   7   38.57   30.71
  11   1   7  141.11   31.26
  12   1   7    0.00   31.29
 -13   2   7  116.75   30.39
 -12   2   7    0.00   37.54
 -11   2   7    0.00   58.49
 -10   2   7  370.08   37.08
  -9   2   7  593.22   53.40
  -8   2   7    2.69   37.30
  -7   2   7  996.84   40.49
  -6   2   7 4142.62   94.76
  -5   2   7   86.54   17.71
  -4   2   7   24.39   18.51
  -3   2   7 3365.25   75.45
  -2   2   7 3251.59  119.55
  -1   2   7   19.69    8.23
   0   2   7 6454.84  171.17
   1   2   7 10633.3   317.5
   2   2   7   19.27   13.27
   3   2   7  670.61   27.43
   4   2   7 3234.94  130.85
   5   2   7 2270.03   83.52
   6   2   7 1372.98   46.72
   7   2   7  574.75   38.72
   8   2   7 1394.96   57.20
   9   2   7  592.56   40.65
  10   2   7   50.28   33.48
  11   2   7  145.51   36.38
  12   2   7  115.14   31.99
 -13   3   7  484.28   60.09
 -12   3   7 2111.95   64.40
 -11   3   7    0.00   52.19
 -10   3   7  150.16   58.49
  -9   3   7  475.64   48.10
  -8   3   7 5947.16  151.81
  -7   3   7   12.67   29.04
  -6   3   7 1522.91   46.73
  -5   3   7 8138.26  301.50
  -4   3   7 3955.92   63.51
  -3   3   7 2421.96   53.67
  -2   3   7 1235.64   30.11
  -1   3   7 15603.0   212.6
   0   3   7 6082.84  128.33
   1   3   7 6082.37  145.13
   2   3   7 2067.64   58.11
   3   3   7 2101.74   41.48
   4   3   7 8441.38  181.62
   5   3   7 1191.92   40.70
   6   3   7 2851.53   95.64
   7   3   7 1687.48   65.46
   8   3   7 1578.36   58.69
   9   3   7   75.16   31.31
  10   3   7 1765.56   68.64
  11   3   7  135.71   35.52
  12   3   7    1.12   35.80
 -13   4   7  469.76   95.76
 -12   4   7    0.00   35.08
 -11   4   7 1164.47   60.71
 -10   4   7 1668.94  211.91
  -9   4   7  764.64   61.54
  -8   4   7  173.45   37.19
  -7   4   7 4014.97   88.00
  -6   4   7 12766.6   459.1
  -5   4   7   27.07   30.11
  -4   4   7  759.20   25.84
  -3   4   7  646.63   26.07
  -2   4   7 20130.7   461.6
  -1   4   7 3248.01   53.14
   0   4   7 14517.2   261.1
   1   4   7  910.87   23.70
   2   4   7  949.17   24.37
   3   4   7 6529.95  128.98
   4   4   7 11853.3   274.3
   5   4   7 15759.6   337.9
   6   4   7   72.41   31.48
   7   4   7  201.60   38.54
   8   4   7 1849.80  106.29
   9   4   7 3610.85  114.71
  10   4   7  305.89   35.25
  11   4   7  347.93   37.05
  12   4   7  381.77   63.18
 -13   5   7 1444.13  127.86
 -12   5   7 2042.77  112.32
 -11   5   7  697.77   42.49
 -10   5   7  222.59   45.29
  -9   5   7 1128.16   77.12
  -8   5   7 12643.5   355.3
  -7   5   7 1548.66   63.03
  -6   5   7  939.75   84.80
  -5   5   7 8272.19  227.74
  -4   5   7 18887.9   301.8
  -3   5   7 1649.62   46.45
  -2   5   7 6781.97  127.59
  -1   5   7 49382.1   882.1
   0   5   7 7011.22  150.40
   1   5   7 1244.51   37.67
   2   5   7  699.56   24.57
   3   5   7 12925.6   178.2
   4   5   7 5569.18  198.02
   5   5   7  913.91   40.53
   6   5   7 5136.89  232.43
   7   5   7 3945.24  183.78
   8   5   7  997.31   64.63
   9   5   7    2.02   38.99
  10   5   7 1839.74  119.97
  11   5   7 1655.84   81.58
 -13   6   7  722.95   65.30
 -12   6   7    0.00   31.71
 -11   6   7 1023.83   91.23
 -10   6   7 3765.81   99.91
  -9   6   7 4562.28  139.00
  -8   6   7  141.33   50.35
  -7   6   7 12616.8   290.1
  -6   6   7 8861.19  343.46
  -5   6   7  879.46  119.09
  -4   6   7    7.44   21.13
  -3   6   7 12113.3   319.2
  -2   6   7 40651.8   694.6
  -1   6   7  395.40   15.76
   0   6   7 6649.19   92.50
   1   6   7 13980.6   429.3
   2   6   7 8880.10  222.23
   3   6   7  670.04   44.62
   4   6   7 10745.8   404.7
   5   6   7 11049.2   228.9
   6   6   7 1619.87  143.89
   7   6   7   14.94   40.60
   8   6   7 4551.99  180.43
   9   6   7 1923.68  157.35
  10   6   7  564.31   49.04
  11   6   7  700.96   40.51
 -13   7   7 1171.51  106.85
 -12   7   7 2520.06   97.92
 -11   7   7 1321.62   78.88
 -10   7   7  365.67   64.59
  -9   7   7 4423.76  212.50
  -8   7   7 16488.6   811.4
  -7   7   7 3042.38  103.88
  -6   7   7 1226.07   55.75
  -5   7   7 17647.9   628.2
  -4   7   7 22867.0   758.8
  -3   7   7 2529.83  161.57
  -2   7   7 8568.58  188.59
  -1   7   7 57376.1   674.7
   0   7   7 28245.4   588.2
   1   7   7  252.92   24.47
   2   7   7 5874.87  279.90
   3   7   7 8928.70  213.53
   4   7   7 8889.31  254.12
   5   7   7 1952.51  130.43
   6   7   7 10132.8   457.5
   7   7   7 3406.24  138.10
   8   7   7  952.08   84.97
   9   7   7    0.00   43.40
  10   7   7 4229.25  321.65
  11   7   7 1560.99   93.71
 -12   8   7   80.34   42.32
 -11   8   7 1359.33   68.64
 -10   8   7 3743.48  236.58
  -9   8   7 4805.86  295.19
  -8   8   7  308.56   47.44
  -7   8   7 9921.96  405.08
  -6   8   7 14641.0   788.0
  -5   8   7 3206.88  157.49
  -4   8   7 1922.86   54.76
  -3   8   7 24156.1   509.4
  -2   8   7 31016.6   792.8
  -1   8   7  177.61   21.92
   0   8   7 13508.2   487.6
   1   8   7 14435.0   569.7
   2   8   7 11863.5   389.1
   3   8   7  608.51   41.83
   4   8   7 9315.36  231.73
   5   8   7 12144.5   282.6
   6   8   7 1372.99  131.11
   7   8   7  686.18   76.67
   8   8   7 2966.22  152.31
   9   8   7 3474.90  114.88
  10   8   7  571.99   64.59
  11   8   7  819.12   60.41
 -12   9   7 1880.77   75.53
 -11   9   7 1157.68   53.54
 -10   9   7  596.89   63.13
  -9   9   7 2538.46  188.38
  -8   9   7 9311.88  226.43
  -7   9   7 2623.69  159.26
  -6   9   7 2088.66   72.44
  -5   9   7 18832.5   625.4
  -4   9   7 25594.7   773.7
  -3   9   7 5654.57  169.38
  -2   9   7 6651.40   91.84
  -1   9   7 25342.4   466.9
   0   9   7 16643.0   339.2
   1   9   7   42.18   26.83
   2   9   7 6553.74  329.01
   3   9   7 8502.76  238.37
   4   9   7 4358.19  163.32
   5   9   7   13.80   55.02
   6   9   7 5352.41  192.12
   7   9   7 6900.67  261.02
   8   9   7  717.44  105.39
   9   9   7  291.56   47.12
  10   9   7 2493.50   85.19
 -12  10   7   12.62   42.25
 -11  10   7 1658.59   77.62
 -10  10   7 2340.61  101.79
  -9  10   7 2514.77  130.53
  -8  10   7   75.48   28.61
  -7  10   7 8161.78  281.76
  -6  10   7 10179.2   427.0
  -5  10   7 1711.53  108.25
  -4  10   7 1549.36   51.48
  -3  10   7 9977.63  203.21
  -2  10   7 16002.8   368.0
  -1  10   7  430.28   46.68
   0  10   7 15190.9   256.4
   1  10   7 13660.1   361.2
   2  10   7 3836.48   94.01
   3  10   7 1333.78   60.33
   4  10   7 4165.59  129.19
   5  10   7 7240.03  349.47
   6  10   7 1078.96   82.30
   7  10   7    0.00   60.50
   8  10   7 3234.77  145.04
   9  10   7 5490.74  130.35
  10  10   7  151.00   45.07
 -11  11   7 1065.17  183.45
 -10  11   7    0.00   42.85
  -9  11   7  973.79   79.55
  -8  11   7 3893.73  124.73
  -7  11   7 4001.81  205.88
  -6  11   7 2594.40  109.79
  -5  11   7 11811.4   417.0
  -4  11   7 14602.5   440.4
  -3  11   7 1970.84   84.33
  -2  11   7 3392.19   68.75
  -1  11   7 29522.3   699.9
   0  11   7 6576.48  170.33
   1  11   7  969.85   42.10
   2  11   7  315.10   35.36
   3  11   7 8582.43  229.39
   4  11   7 8016.48  226.77
   5  11   7 1740.97   88.52
   6  11   7 4653.72  181.43
   7  11   7 1864.20  103.34
   8  11   7 2556.54  249.94
   9  11   7  374.35   50.89
  10  11   7 3639.64  192.88
 -11  12   7  604.73   50.20
 -10  12   7 1829.26  205.97
  -9  12   7  806.60  167.98
  -8  12   7  376.10   46.32
  -7  12   7 2867.93  110.66
  -6  12   7 11096.2   251.3
  -5  12   7 2621.36  159.01
  -4  12   7 1284.91   40.63
  -3  12   7 6747.34  127.06
  -2  12   7 17978.9   521.5
  -1  12   7  453.97   32.74
   0  12   7 10315.0   217.6
   1  12   7 3581.54  120.90
   2  12   7 5978.05  165.66
   3  12   7   41.92   31.66
   4  12   7 6932.11  163.30
   5  12   7 5590.83  146.43
   6  12   7  660.41  134.42
   7  12   7    1.17   41.33
   8  12   7 2228.60   98.73
   9  12   7 1953.20   82.17
 -10  13   7  153.97   41.35
  -9  13   7  789.03   67.23
  -8  13   7 3743.17  156.07
  -7  13   7 2380.70   85.14
  -6  13   7  241.84   36.39
  -5  13   7 2986.36   85.50
  -4  13   7 12554.0   301.3
  -3  13   7 1152.66   75.05
  -2  13   7 4597.58  104.31
  -1  13   7 11519.9   236.9
   0  13   7 4064.80  102.21
   1  13   7  264.03   34.00
   2  13   7 6343.45  184.20
   3  13   7 5599.38  162.33
   4  13   7  123.20   48.94
   5  13   7    0.00  108.44
   6  13   7 2134.35   96.07
   7  13   7 4866.85  264.71
   8  13   7  244.50   51.75
   9  13   7  268.34   46.88
 -10  14   7 1225.10  234.73
  -9  14   7  745.88   97.54
  -8  14   7   52.55   33.32
  -7  14   7 1399.29   64.62
  -6  14   7 2146.57   93.74
  -5  14   7 1779.86  116.10
  -4  14   7  813.81   49.66
  -3  14   7 5107.36  180.62
  -2  14   7 3038.88   92.74
  -1  14   7    6.72   27.33
   0  14   7 2278.89   63.51
   1  14   7 5632.06  199.13
   2  14   7 2354.92   78.13
   3  14   7  449.89   44.24
   4  14   7  643.15  142.85
   5  14   7 1846.11  140.38
   6  14   7 1446.93   86.58
   7  14   7  111.82   46.60
   8  14   7  932.93   50.72
  -9  15   7  574.15   53.02
  -8  15   7 1263.97  133.00
  -7  15   7  564.28   55.25
  -6  15   7   72.62   38.21
  -5  15   7 2090.65   74.35
  -4  15   7 5295.47  211.98
  -3  15   7   63.66   33.26
  -2  15   7 1361.57   67.80
  -1  15   7 1256.75   66.73
   0  15   7 1632.74   80.72
   1  15   7  117.91   33.63
   2  15   7 2255.45  137.57
   3  15   7  994.47   72.16
   4  15   7  887.37   57.94
   5  15   7    1.91   43.99
   6  15   7 1170.08   78.66
   7  15   7  997.65   45.42
  -8  16   7   59.36   72.92
  -7  16   7   73.21   41.59
  -6  16   7 1434.42  115.79
  -5  16   7  517.73   48.06
  -4  16   7  257.41   41.67
  -3  16   7 1063.64   48.34
  -2  16   7  992.23   82.05
  -1  16   7   94.15   32.26
   0  16   7  628.68   45.40
   1  16   7 1347.64   51.94
   2  16   7  752.80   62.34
   3  16   7  154.38   34.27
   4  16   7  182.25   38.31
   5  16   7   44.34   36.88
   6  16   7  810.44   90.67
  -7  17   7  782.45  101.92
  -6  17   7  195.70  105.03
  -5  17   7  807.71   55.25
  -4  17   7 1016.94   64.78
  -3  17   7    9.46   37.95
  -2  17   7   87.34   33.28
  -1  17   7  823.72   59.53
   0  17   7 1156.51   66.41
   1  17   7  340.09   39.99
   2  17   7  825.08   44.24
   3  17   7  242.17   40.92
   4  17   7   31.48   39.48
   5  17   7   35.31   40.00
  -6  18   7 1043.24  104.95
  -5  18   7  385.63   57.36
  -4  18   7  236.23   46.34
  -3  18   7  332.82   48.59
  -2  18   7  546.07   56.94
  -1  18   7  155.96   41.49
   0  18   7  137.20   37.14
   1  18   7  286.43   37.08
   2  18   7   17.85   44.70
   3  18   7   49.88   44.00
   4  18   7   77.97   38.26
  -4  19   7  310.09   61.34
  -3  19   7   75.15   50.80
  -2  19   7  249.35   59.11
  -1  19   7  238.25   72.69
   0  19   7   96.21   67.85
   1  19   7   69.77   56.48
   2  19   7   85.51   42.88
 -13   0   8  136.72   45.12
 -12   0   8 3028.08  144.81
 -11   0   8 16675.7   539.4
 -10   0   8 2378.49  109.78
  -9   0   8 14593.1   335.4
  -8   0   8 15474.3   350.5
  -7   0   8 5606.61  132.78
  -6   0   8  925.18   49.85
  -5   0   8 3534.72   86.78
  -4   0   8 29711.7   896.9
  -3   0   8   66.17   39.45
  -2   0   8 6502.15  101.49
  -1   0   8 41652.9   829.4
   0   0   8 73778.5   971.7
   1   0   8 8280.47  116.69
   2   0   8 4852.85   86.88
   3   0   8 53667.9  1456.0
   4   0   8 9570.89  202.34
   5   0   8  211.70   37.90
   6   0   8 4876.42  255.97
   7   0   8 9715.73  694.99
   8   0   8 3022.81  144.55
   9   0   8  799.53   68.96
  10   0   8 1296.37   76.27
  11   0   8 2182.60  116.51
  12   0   8 1029.96   87.87
 -13   1   8 3649.14  102.50
 -12   1   8 1662.50   64.75
 -11   1   8  142.19   51.16
 -10   1   8 21904.7   485.4
  -9   1   8 3099.42   78.15
  -8   1   8  103.27   30.08
  -7   1   8 5776.14  113.71
  -6   1   8 22486.6   427.5
  -5   1   8 13633.5   224.1
  -4   1   8 2671.71   57.12
  -3   1   8 7861.36  188.70
  -2   1   8 12290.7   227.4
  -1   1   8 10441.6   111.0
   0   1   8 6651.89   68.24
   1   1   8 33198.1   342.6
   2   1   8 83911.1  1381.0
   3   1   8    4.52   21.26
   4   1   8 11459.2   319.5
   5   1   8 26545.0   780.4
   6   1   8 8159.76  275.98
   7   1   8  731.53   42.44
   8   1   8 3742.25  209.79
   9   1   8 5920.55  297.76
  10   1   8  345.22   37.34
  11   1   8   77.90   32.59
  12   1   8  823.43   55.68
 -13   2   8   39.18   22.70
 -12   2   8 4658.06  107.05
 -11   2   8 11261.1   270.8
 -10   2   8 1167.58   70.88
  -9   2   8 6909.65  168.43
  -8   2   8 11291.4   220.2
  -7   2   8 8035.18  131.40
  -6   2   8 4242.14   91.27
  -5   2   8 10494.3   207.2
  -4   2   8 47023.6   793.0
  -3   2   8 1512.02   35.21
  -2   2   8 1762.42   60.19
  -1   2   8 30947.3   452.2
   0   2   8 51122.2  1077.6
   1   2   8 2756.81   95.86
   2   2   8 4765.45   87.82
   3   2   8 46879.8   801.3
   4   2   8 16778.6   522.6
   5   2   8  570.69   30.33
   6   2   8 3787.90  132.64
   7   2   8 5527.94  258.96
   8   2   8 3421.20  138.20
   9   2   8 1076.07   66.81
  10   2   8 1509.71   73.75
  11   2   8 1214.90   68.12
 -13   3   8 2553.30   59.33
 -12   3   8 1444.95   55.17
 -11   3   8  134.51   40.47
 -10   3   8 12613.5   320.9
  -9   3   8 1715.06  101.41
  -8   3   8   13.67   45.49
  -7   3   8 4662.66  103.29
  -6   3   8 29394.3  1305.5
  -5   3   8 9883.35  598.02
  -4   3   8  120.87   25.80
  -3   3   8 7468.20  116.92
  -2   3   8 6829.43  119.93
  -1   3   8 50015.3   987.3
   0   3   8 9623.51  252.52
   1   3   8 36793.6  1409.1
   2   3   8 44216.7  1142.1
   3   3   8 1679.54   38.29
   4   3   8 12181.0   200.2
   5   3   8 23476.6   682.6
   6   3   8 6805.11  197.87
   7   3   8    1.37   34.00
   8   3   8 2264.01   82.96
   9   3   8 4427.05  193.31
  10   3   8  293.60   49.97
  11   3   8   29.58   25.59
 -13   4   8    0.00   74.52
 -12   4   8 3328.51   90.89
 -11   4   8 4220.15  113.76
 -10   4   8  675.99   80.98
  -9   4   8 5083.25  525.36
  -8   4   8 12612.2   812.7
  -7   4   8 4949.35  161.45
  -6   4   8   25.09   40.81
  -5   4   8 4872.33  201.00
  -4   4   8 19847.0   476.7
  -3   4   8 10532.5   360.2
  -2   4   8 3842.27   84.48
  -1   4   8 6901.03  163.24
   0   4   8 28461.7   772.5
   1   4   8 31149.2   816.4
   2   4   8 23629.3   633.0
   3   4   8 35838.6   585.5
   4   4   8 4202.96   97.10
   5   4   8 1435.84   74.94
   6   4   8 3648.52   96.02
   7   4   8 8805.28  205.76
   8   4   8  293.90   44.26
   9   4   8  809.21   61.33
  10   4   8  530.86   79.23
  11   4   8 1526.63   82.24
 -13   5   8 2206.40  154.91
 -12   5   8  302.77   34.67
 -11   5   8  247.24   33.00
 -10   5   8 4858.89  116.31
  -9   5   8 1662.61  120.14
  -8   5   8  235.30   65.47
  -7   5   8 3019.33  126.08
  -6   5   8 6491.97  235.93
  -5   5   8 7520.33  317.03
  -4   5   8   24.32   21.92
  -3   5   8 17397.6   478.5
  -2   5   8 4401.69   62.52
  -1   5   8 10123.6   206.4
   0   5   8  341.60   23.79
   1   5   8 6973.77  176.77
   2   5   8 32232.2   517.5
   3   5   8  126.45   33.79
   4   5   8 5117.46  130.18
   5   5   8 6178.58  165.52
   6   5   8 6433.75  215.50
   7   5   8  136.30   35.10
   8   5   8 2600.41  104.02
   9   5   8  900.38   77.19
  10   5   8  326.03   68.63
  11   5   8  131.55   24.91
 -13   6   8   16.65   47.79
 -12   6   8 1030.86   60.25
 -11   6   8 1862.59  138.48
 -10   6   8   46.38   34.17
  -9   6   8 2651.56  149.53
  -8   6   8 4699.11  270.40
  -7   6   8 1683.36  116.88
  -6   6   8   94.59   36.71
  -5   6   8 2426.75   89.92
  -4   6   8 6712.48  211.83
  -3   6   8 2699.59   71.18
  -2   6   8   61.18   12.97
  -1   6   8 7244.97  167.74
   0   6   8 5666.71  161.73
   1   6   8 4924.64  160.66
   2   6   8 3065.65  102.84
   3   6   8 7462.52  266.36
   4   6   8 4696.40  228.12
   5   6   8  142.06   34.51
   6   6   8 2785.53  163.94
   7   6   8  948.03   54.39
   8   6   8  501.34   89.90
   9   6   8    0.00   40.52
  10   6   8  337.39   40.99
  11   6   8  495.16   56.28
 -12   7   8  335.80   71.94
 -11   7   8    0.00   47.85
 -10   7   8 1955.54  111.30
  -9   7   8  579.17  130.29
  -8   7   8  216.69   71.61
  -7   7   8 1908.19   83.06
  -6   7   8 1335.98   98.97
  -5   7   8  433.29   49.40
  -4   7   8  221.84   26.58
  -3   7   8  370.78   33.73
  -2   7   8 4315.36   77.59
  -1   7   8 15271.3   326.5
   0   7   8 5278.23   90.31
   1   7   8 3564.85  218.84
   2   7   8 5677.02  197.22
   3   7   8 4907.78  316.83
   4   7   8 2316.28  109.43
   5   7   8 5240.53  185.24
   6   7   8  212.10   65.66
   7   7   8   14.72   60.36
   8   7   8 1118.96   83.23
   9   7   8  713.59   59.69
  10   7   8  421.06   41.56
  11   7   8   93.31   57.53
 -12   8   8  475.65   48.11
 -11   8   8 1004.35   57.69
 -10   8   8    0.00   43.31
  -9   8   8  888.90   66.58
  -8   8   8 1616.51   96.39
  -7   8   8   53.50   44.95
  -6   8   8  464.89   40.85
  -5   8   8  226.40   34.41
  -4   8   8  469.32   29.29
  -3   8   8 4007.33  123.16
  -2   8   8  189.78   27.24
  -1   8   8 3182.43  111.87
   0   8   8 1005.18   57.11
   1   8   8 4788.60  293.80
   2   8   8 5011.31  155.29
   3   8   8 4424.20  268.79
   4   8   8 1112.01   68.61
   5   8   8  228.21   53.26
   6   8   8 2340.16  145.57
   7   8   8  256.62   67.55
   8   8   8   25.16   88.34
   9   8   8   48.15   41.77
  10   8   8   55.93   30.81
 -12   9   8  423.08   45.48
 -11   9   8  100.42   38.75
 -10   9   8  241.98   44.53
  -9   9   8    2.15   43.13
  -8   9   8  114.40   49.17
  -7   9   8  596.11   48.17
  -6   9   8   27.94   37.88
  -5   9   8  129.98   31.57
  -4   9   8  252.21   31.84
  -3   9   8   42.77   24.38
  -2   9   8  285.02   22.64
  -1   9   8 3775.56   90.27
   0   9   8 1609.05   53.98
   1   9   8   63.68   36.61
   2   9   8  817.13   52.28
   3   9   8 1869.58   73.83
   4   9   8  936.47   74.60
   5   9   8  437.03   79.15
   6   9   8  703.45   78.91
   7   9   8  119.42   64.32
   8   9   8  331.00   55.42
   9   9   8  135.38   34.63
  10   9   8   46.37   30.63
 -12  10   8  177.96   45.27
 -11  10   8   11.02   38.25
 -10  10   8   83.13   43.84
  -9  10   8   91.40   37.84
  -8  10   8  118.68   34.77
  -7  10   8   61.09   38.58
  -6  10   8   54.45   39.93
  -5  10   8  209.16   34.68
  -4  10   8 6019.23  195.06
  -3  10   8   48.42   24.52
  -2  10   8 2036.13   49.90
  -1  10   8 1186.09   38.03
   0  10   8  208.97   25.30
   1  10   8  752.66   50.41
   2  10   8  250.70   36.77
   3  10   8  158.06   36.77
   4  10   8  905.59   69.42
   5  10   8  253.08   61.52
   6  10   8  709.57   73.94
   7  10   8  895.09  146.15
   8  10   8   80.25   37.70
   9  10   8  209.09   38.25
  10  10   8   30.09   36.57
 -11  11   8   23.12   38.57
 -10  11   8  305.80   69.41
  -9  11   8  148.95   31.71
  -8  11   8  180.37   65.31
  -7  11   8  318.90   42.25
  -6  11   8 1127.62   61.15
  -5  11   8 6585.03  151.47
  -4  11   8 1418.58   42.93
  -3  11   8  755.99   32.89
  -2  11   8  256.90   28.14
  -1  11   8  139.31   30.67
   0  11   8  574.64   35.39
   1  11   8  493.40   39.21
   2  11   8   14.99   33.70
   3  11   8  236.29   39.96
   4  11   8  164.36   50.27
   5  11   8  222.56   51.32
   6  11   8   51.36   57.69
   7  11   8  611.60   88.42
   8  11   8   82.26   47.12
   9  11   8  471.18   49.45
 -11  12   8 1007.08   97.47
 -10  12   8   17.26   43.70
  -9  12   8  107.96   50.03
  -8  12   8   21.13   30.45
  -7  12   8 1397.12   72.79
  -6  12   8  275.79   43.28
  -5  12   8 3106.94   79.94
  -4  12   8 1570.65   51.66
  -3  12   8  308.34   30.54
  -2  12   8  390.37   33.04
  -1  12   8 2016.01   59.67
   0  12   8 2461.19  102.94
   1  12   8  629.81   49.01
   2  12   8  306.30   35.47
   3  12   8   21.96   39.21
   4  12   8 1278.95   77.84
   5  12   8  408.42   60.38
   6  12   8    0.00   53.15
   7  12   8    0.00   46.40
   8  12   8 1463.33   76.44
   9  12   8  105.01   46.00
 -10  13   8  837.65   47.28
  -9  13   8  537.10  126.65
  -8  13   8   59.15   35.24
  -7  13   8   43.28   33.19
  -6  13   8 2682.70   99.86
  -5  13   8 2275.75  101.42
  -4  13   8  664.26   46.66
  -3  13   8 1149.56   65.35
  -2  13   8 2437.95   71.59
  -1  13   8  603.35   32.89
   0  13   8  280.45   34.10
   1  13   8  680.82   38.89
   2  13   8  744.04   42.99
   3  13   8   29.19   38.23
   4  13   8  954.98   81.60
   5  13   8   60.42   79.23
   6  13   8  939.23   96.91
   7  13   8  334.94   54.56
   8  13   8  429.38   49.86
  -9  14   8  681.77   53.34
  -8  14   8  328.01   55.85
  -7  14   8 1160.14   59.08
  -6  14   8  932.66   75.25
  -5  14   8 1532.53  160.26
  -4  14   8 3759.07  142.69
  -3  14   8 1068.50   67.23
  -2  14   8 1868.93   88.35
  -1  14   8   54.75   30.80
   0  14   8 1308.88   68.88
   1  14   8 2454.19   96.18
   2  14   8  786.77   41.83
   3  14   8  876.85   75.70
   4  14   8   23.71   53.04
   5  14   8  266.36   58.10
   6  14   8   15.25   49.77
   7  14   8 1901.34  102.47
   8  14   8  581.62   56.49
  -9  15   8 1382.46  114.28
  -8  15   8    0.00   41.54
  -7  15   8   10.17   31.54
  -6  15   8 2113.90   95.39
  -5  15   8 3898.93  199.72
  -4  15   8  469.63   62.45
  -3  15   8 2781.97  117.40
  -2  15   8 1324.85   52.23
  -1  15   8  437.74   36.97
   0  15   8    9.97   34.09
   1  15   8 2509.09  144.26
   2  15   8  877.44   92.79
   3  15   8   41.85   35.18
   4  15   8  460.38   66.75
   5  15   8  422.07   44.30
   6  15   8 1651.95   84.93
   7  15   8  242.24   33.62
  -8  16   8  790.84   94.13
  -7  16   8 1850.25  149.86
  -6  16   8  344.25   57.68
  -5  16   8 1386.38   84.62
  -4  16   8 3249.88  115.92
  -3  16   8 1364.15   56.75
  -2  16   8  107.66   30.25
  -1  16   8  698.15   45.51
   0  16   8 1838.13   82.31
   1  16   8  287.91   33.93
   2  16   8  378.78   39.50
   3  16   8 1207.98   55.33
   4  16   8  599.88   94.45
   5  16   8   43.86   39.60
   6  16   8  188.47   34.07
  -7  17   8  157.76   68.33
  -6  17   8 1532.60   84.22
  -5  17   8 3123.30  215.86
  -4  17   8   52.26   58.76
  -3  17   8 2297.07  153.02
  -2  17   8 2041.20   83.94
  -1  17   8   40.87   31.46
   0  17   8   13.96   31.24
   1  17   8 2082.14   85.40
   2  17   8 2237.55  128.39
   3  17   8   92.77   41.82
   4  17   8  395.84   60.63
   5  17   8  794.05   50.73
  -5  18   8 1099.93   78.75
  -4  18   8 2436.33  111.82
  -3  18   8  686.87   55.04
  -2  18   8  149.89   47.99
  -1  18   8 1545.42  134.84
   0  18   8 1093.94   78.43
   1  18   8  235.75   38.64
   2  18   8  148.31   43.98
   3  18   8 1256.31   68.73
   4  18   8 1206.17  221.17
  -3  19   8  648.96   78.42
  -2  19   8 2123.77  137.06
  -1  19   8 1051.23   95.28
   0  19   8  446.20   69.67
   1  19   8 1011.15  118.12
   2  19   8  490.38   62.17
 -13   1   9   18.29   26.96
 -12   1   9  113.60   42.20
 -11   1   9  347.49   56.37
 -10   1   9    0.07   53.16
  -9   1   9   40.25   34.94
  -8   1   9    0.00   27.59
  -7   1   9 2635.28   55.22
  -6   1   9  872.54   59.93
  -5   1   9 2593.77   73.18
  -4   1   9  486.37   24.02
  -3   1   9   99.93   18.80
  -2   1   9  997.99   23.59
  -1   1   9 1897.68   29.78
   0   1   9 1271.14   25.73
   1   1   9 1255.01   24.20
   2   1   9   64.86   20.32
   3   1   9    0.00   27.64
   4   1   9   29.72   21.72
   5   1   9    0.00   22.97
   6   1   9   43.48   26.48
   7   1   9   69.26   30.33
   8   1   9  149.31   46.47
   9   1   9    5.85   36.42
  10   1   9   18.40   37.03
  11   1   9   82.07   28.06
 -13   2   9  128.98   23.17
 -12   2   9  105.46   42.32
 -11   2   9   31.68   48.35
 -10   2   9  715.46   81.96
  -9   2   9 2769.18  121.04
  -8   2   9 1942.17   61.03
  -7   2   9  311.76   38.83
  -6   2   9 5000.49  132.39
  -5   2   9 4139.00   99.38
  -4   2   9   12.61   23.89
  -3   2   9   11.88   18.94
  -2   2   9  232.02   14.62
  -1   2   9 3445.32   42.72
   0   2   9  499.80   19.96
   1   2   9 2428.26   35.76
   2   2   9 2982.69   64.88
   3   2   9 7443.23  207.49
   4   2   9   50.62   21.85
   5   2   9  777.36   37.63
   6   2   9  730.31   35.34
   7   2   9    3.21   29.23
   8   2   9   51.50   39.49
   9   2   9  285.87   48.30
  10   2   9  153.63   53.99
  11   2   9   76.69   27.62
 -13   3   9    0.00   23.08
 -12   3   9  511.36   46.84
 -11   3   9 1112.72   57.32
 -10   3   9 1371.15  105.92
  -9   3   9  206.74   49.58
  -8   3   9  942.99  171.09
  -7   3   9 8277.50  291.36
  -6   3   9 2645.34  122.33
  -5   3   9 4348.70  178.13
  -4   3   9   41.97   43.65
  -3   3   9 3535.51   71.45
  -2   3   9  771.51   20.00
  -1   3   9 8204.43  222.94
   0   3   9 12764.6   356.0
   1   3   9 3050.78   95.29
   2   3   9 2454.52   52.04
   3   3   9  858.88   36.23
   4   3   9 8248.21  210.20
   5   3   9  337.42   28.60
   6   3   9 1077.25   45.34
   7   3   9 2119.88  103.63
   8   3   9  904.64   64.02
   9   3   9   11.43   63.61
  10   3   9  188.11   42.67
  11   3   9  857.73   38.17
 -13   4   9  951.25  102.91
 -12   4   9  879.16   38.31
 -11   4   9  220.67   37.89
 -10   4   9 1703.68   79.58
  -9   4   9 6729.37  504.83
  -8   4   9 3465.37  156.43
  -7   4   9  881.94   69.89
  -6   4   9 12775.2   417.4
  -5   4   9 16690.6   667.3
  -4   4   9 1527.10   49.01
  -3   4   9 2666.46   72.83
  -2   4   9 5295.86   78.72
  -1   4   9 23611.2   599.5
   0   4   9 8815.55  270.73
   1   4   9 12208.3   330.3
   2   4   9 1034.78   38.47
   3   4   9 17409.2   570.7
   4   4   9  858.95   36.87
   5   4   9 7582.14  172.87
   6   4   9 1208.60   47.04
   7   4   9  525.09   41.68
   8   4   9   81.36   36.38
   9   4   9 1492.65  118.04
  10   4   9  957.72   60.64
  11   4   9   13.70   23.97
 -13   5   9   28.06   69.79
 -12   5   9  795.35   38.73
 -11   5   9 2606.88   94.15
 -10   5   9 2539.77   85.93
  -9   5   9  535.28   85.77
  -8   5   9 3989.49  241.87
  -7   5   9 10184.2   495.1
  -6   5   9   17.79   44.13
  -5   5   9 1889.28  103.79
  -4   5   9 6785.41  141.67
  -3   5   9 13594.6   279.4
  -2   5   9  239.87   18.09
  -1   5   9 10206.9   394.0
   0   5   9 8465.85  215.96
   1   5   9 1167.55   39.52
   2   5   9   45.80   25.25
   3   5   9 1911.53   71.85
   4   5   9 9702.87  225.76
   5   5   9 3006.77  131.81
   6   5   9  617.85   42.42
   7   5   9 2759.51  103.79
   8   5   9 2169.52  170.18
   9   5   9  161.10   38.19
  10   5   9  467.95   57.39
  11   5   9 1655.80  352.28
 -13   6   9 1602.53  150.26
 -12   6   9  776.81   55.34
 -11   6   9   21.16   28.59
 -10   6   9 1228.20   49.38
  -9   6   9 13070.6  1120.6
  -8   6   9 6366.98  539.79
  -7   6   9 1280.08   83.28
  -6   6   9 6469.64  501.26
  -5   6   9 8593.17  202.90
  -4   6   9 3056.01  112.01
  -3   6   9 1159.71   46.61
  -2   6   9 35489.8   611.7
  -1   6   9 11300.3   313.8
   0   6   9  160.21   21.93
   1   6   9 5993.18  231.41
   2   6   9 13163.1   337.5
   3   6   9 7802.36  320.36
   4   6   9   79.56   51.05
   5   6   9 9531.84  375.31
   6   6   9 7884.00  344.93
   7   6   9 1035.00  110.85
   8   6   9  787.50   72.52
   9   6   9  953.33   68.77
  10   6   9 1185.65   90.46
  11   6   9   16.70   54.26
 -12   7   9 1330.42   71.73
 -11   7   9 2998.72  117.31
 -10   7   9 2687.26  180.32
  -9   7   9  258.94   62.23
  -8   7   9 5979.32  258.89
  -7   7   9 12407.7   328.3
  -6   7   9  514.73   44.03
  -5   7   9 4234.64  119.64
  -4   7   9 11798.2   399.4
  -3   7   9 21489.9   379.1
  -2   7   9 1525.40  104.92
  -1   7   9 7651.53  191.80
   0   7   9 21718.9   574.8
   1   7   9 5782.52  156.02
   2   7   9  906.09   52.17
   3   7   9 5084.80  150.27
   4   7   9 13950.9   477.2
   5   7   9 5864.54  380.19
   6   7   9 2082.47  164.95
   7   7   9 5678.52  308.34
   8   7   9 2260.40  562.74
   9   7   9  184.76   36.88
  10   7   9  631.64   50.86
 -12   8   9 1585.52  118.96
 -11   8   9  138.27   50.09
 -10   8   9 2398.26  103.69
  -9   8   9 6367.30  339.39
  -8   8   9 8442.14  269.85
  -7   8   9  421.27   54.89
  -6   8   9 22081.9   849.3
  -5   8   9 9340.68  220.47
  -4   8   9 1761.43  106.66
  -3   8   9 2588.06   83.63
  -2   8   9 21171.4   467.7
  -1   8   9 12340.3   285.2
   0   8   9  606.88   57.99
   1   8   9 8863.80  545.28
   2   8   9 13920.6   309.8
   3   8   9 6566.43  314.54
   4   8   9  157.69   50.56
   5   8   9 4971.22  298.26
   6   8   9 10592.4   373.7
   7   8   9  799.95   83.07
   8   8   9  767.10   83.51
   9   8   9 1888.63   56.83
  10   8   9 1605.08   60.68
 -12   9   9  832.57   90.04
 -11   9   9 1832.03   88.82
 -10   9   9 4310.69  179.62
  -9   9   9   53.33   53.90
  -8   9   9 5858.06  272.84
  -7   9   9 11484.3   275.5
  -6   9   9 1238.93   68.56
  -5   9   9 6260.25  302.86
  -4   9   9 14486.6   390.8
  -3   9   9 9983.36  341.48
  -2   9   9   88.80   28.18
  -1   9   9 4900.67   97.42
   0   9   9 14888.6   393.3
   1   9   9 2647.64  105.64
   2   9   9  174.83   41.22
   3   9   9 3910.68  157.36
   4   9   9 8009.69  329.34
   5   9   9 2581.49  144.93
   6   9   9 1087.13  109.20
   7   9   9 4155.26  197.24
   8   9   9 3977.16  113.25
   9   9   9  495.66   35.91
  10   9   9  525.75   69.58
 -11  10   9  437.42   51.08
 -10  10   9 2909.59  151.63
  -9  10   9 5158.60  180.25
  -8  10   9 2726.04  154.87
  -7  10   9  701.63   64.42
  -6  10   9 23584.0   768.5
  -5  10   9 14361.4   345.0
  -4  10   9  335.82   36.12
  -3  10   9   88.35   29.82
  -2  10   9 9641.13  210.94
  -1  10   9 20736.5   470.8
   0  10   9 2599.65  112.67
   1  10   9 4209.85  146.14
   2  10   9 3693.21  114.17
   3  10   9 17811.9   469.9
   4  10   9  195.19   65.86
   5  10   9 6676.22  314.23
   6  10   9 2329.59  142.26
   7  10   9  689.92   51.84
   8  10   9  370.00   39.49
   9  10   9 4632.27  176.49
 -11  11   9 2396.14  103.32
 -10  11   9 1375.74  237.83
  -9  11   9  118.46   32.28
  -8  11   9 1195.55  154.72
  -7  11   9 14171.1   447.0
  -6  11   9 5573.68  258.78
  -5  11   9 5367.79  183.31
  -4  11   9 9577.84  302.41
  -3  11   9 1872.61   91.16
  -2  11   9 4889.75  218.47
  -1  11   9 4763.71  141.76
   0  11   9 20028.1   626.8
   1  11   9   22.75   37.16
   2  11   9 1155.55   59.58
   3  11   9 2049.83  102.44
   4  11   9 11206.0   382.3
   5  11   9 1548.93  166.64
   6  11   9 1805.45  341.55
   7  11   9 1987.92   78.82
   8  11   9 3317.04  116.23
   9  11   9  534.30   54.90
 -11  12   9   66.07   31.94
 -10  12   9  996.13   62.48
  -9  12   9 4603.70  854.40
  -8  12   9 4860.27  204.12
  -7  12   9   73.62   63.67
  -6  12   9 6896.55  251.52
  -5  12   9 5172.50  135.42
  -4  12   9  951.04   68.20
  -3  12   9 2936.26  139.46
  -2  12   9 11216.1   344.2
  -1  12   9 4489.49  182.78
   0  12   9  357.08   41.51
   1  12   9 1893.77   72.86
   2  12   9 4440.24  102.52
   3  12   9 2054.40  129.00
   4  12   9   72.66   54.73
   5  12   9 2956.54  164.26
   6  12   9 3475.01  227.02
   7  12   9  232.08   49.28
   8  12   9  717.96   42.98
   9  12   9 1877.43  117.29
 -10  13   9 2004.24  111.46
  -9  13   9  288.08   64.81
  -8  13   9 6167.72  188.24
  -7  13   9 5819.50  263.84
  -6  13   9    9.80   67.85
  -5  13   9  198.01   47.23
  -4  13   9 8003.14  303.91
  -3  13   9 8975.99  397.00
  -2  13   9  847.38   59.35
  -1  13   9 1081.88   54.31
   0  13   9  583.85   49.57
   1  13   9 3917.54  158.35
   2  13   9  122.35   38.58
   3  13   9 3969.24  165.99
   4  13   9  840.58  106.79
   5  13   9 2023.93  167.77
   6  13   9   28.32   56.90
   7  13   9 3120.15   96.32
   8  13   9  871.89   82.20
  -9  14   9 2380.15  100.03
  -8  14   9 1226.68   96.49
  -7  14   9   36.94   52.42
  -6  14   9 2474.75  132.33
  -5  14   9 4487.81  507.89
  -4  14   9  459.14   51.93
  -3  14   9 1826.44   95.13
  -2  14   9 3761.31  179.11
  -1  14   9 3018.24  191.49
   0  14   9   77.15   30.72
   1  14   9  997.08   45.08
   2  14   9 1762.48   60.12
   3  14   9 1375.09  159.35
   4  14   9   69.55   47.73
   5  14   9 1286.19  131.71
   6  14   9 2062.96  100.62
   7  14   9  297.49   52.23
  -9  15   9   68.17   54.34
  -8  15   9  442.15   51.95
  -7  15   9 2056.83   99.86
  -6  15   9  990.57   78.89
  -5  15   9  800.69   60.72
  -4  15   9 3584.71  201.68
  -3  15   9 1830.81  183.22
  -2  15   9  309.06   71.98
  -1  15   9  267.46   56.06
   0  15   9 1467.97   87.75
   1  15   9  439.82   76.59
   2  15   9   98.72   39.10
   3  15   9  691.01   49.51
   4  15   9  719.15   64.30
   5  15   9  849.99  121.03
   6  15   9   36.92   35.90
   7  15   9 1082.85   95.15
  -8  16   9  321.47   65.06
  -7  16   9    0.00   73.42
  -6  16   9  686.31  114.42
  -5  16   9 1404.29   77.89
  -4  16   9  218.91   42.64
  -3  16   9 1477.50   71.21
  -2  16   9  789.74   42.53
  -1  16   9  269.38   31.07
   0  16   9  266.35   32.50
   1  16   9  327.74   39.43
   2  16   9  615.74   45.03
   3  16   9  203.67   43.24
   4  16   9   55.42   42.21
   5  16   9  112.25   36.45
   6  16   9 1251.03  106.20
  -7  17   9  440.22   65.71
  -6  17   9  347.62  108.24
  -5  17   9  282.81   67.37
  -4  17   9 1068.41   68.63
  -3  17   9  108.73   42.90
  -2  17   9   94.58   39.07
  -1  17   9    4.12   31.31
   0  17   9  122.60   42.42
   1  17   9   56.98   34.06
   2  17   9   74.21   34.52
   3  17   9  258.19   51.30
   4  17   9  234.81   51.75
   5  17   9  230.93   74.01
  -5  18   9  407.52   63.47
  -4  18   9  292.92   41.14
  -3  18   9  205.42   41.97
  -2  18   9  164.70   36.84
  -1  18   9  162.11   69.66
   0  18   9   56.83   46.91
   1  18   9   74.16   39.14
   2  18   9   32.48   45.36
   3  18   9  257.93   48.41
  -3  19   9   14.49   49.01
  -2  19   9  394.87   67.32
  -1  19   9   79.85   60.10
   0  19   9   40.23   52.03
   1  19   9  158.34   74.07
 -13   0  10  293.67   35.46
 -12   0  10  192.24   59.58
 -11   0  10 7930.39  415.21
 -10   0  10 6498.03  249.36
  -9   0  10  129.89   49.97
  -8   0  10 3637.17  129.28
  -7   0  10 8391.65  205.62
  -6   0  10 11524.4   262.1
  -5   0  10 6531.81  205.16
  -4   0  10 9102.22  410.23
  -3   0  10 93762.7  1671.9
  -2   0  10 6391.49  111.69
  -1   0  10 6590.35  120.03
   0   0  10 41573.2   830.2
   1   0  10 74437.9   990.6
   2   0  10 13754.8   303.3
   3   0  10 4270.06  186.70
   4   0  10 8895.74  206.05
   5   0  10 2097.95   88.63
   6   0  10  398.65   41.84
   7   0  10 3746.94  162.21
   8   0  10 5166.70  228.69
   9   0  10 1843.17  111.47
  10   0  10  188.42   53.82
  11   0  10  782.77   72.35
 -13   1  10 3465.67   68.65
 -12   1  10 3660.25  112.56
 -11   1  10 1605.00   75.62
 -10   1  10 3059.51  151.48
  -9   1  10 18368.4   366.2
  -8   1  10 6386.96  128.05
  -7   1  10  337.18   29.22
  -6   1  10   82.75   26.03
  -5   1  10 46249.4  1015.4
  -4   1  10 39290.9   678.3
  -3   1  10  307.91   20.81
  -2   1  10 18597.9   321.6
  -1   1  10 46545.4   469.1
   0   1  10 11513.3   154.8
   1   1  10 15029.5   174.6
   2   1  10 39528.9   510.5
   3   1  10 18890.7   349.7
   4   1  10   78.49   22.97
   5   1  10 2391.50   82.43
   6   1  10 4033.93   82.73
   7   1  10 4562.88  186.10
   8   1  10   18.80   42.72
   9   1  10 3490.47   97.64
  10   1  10 2115.56   70.16
  11   1  10  537.40   47.40
 -13   2  10  217.47   23.97
 -12   2  10  317.70   42.76
 -11   2  10 11948.6   281.8
 -10   2  10 7533.95  225.60
  -9   2  10  741.51   82.15
  -8   2  10 1281.62   68.67
  -7   2  10 6356.75  164.71
  -6   2  10 15864.6   294.7
  -5   2  10 4083.16  128.01
  -4   2  10 6808.10  132.48
  -3   2  10 38368.9   629.8
  -2   2  10 16159.0   261.2
  -1   2  10 6210.70  113.12
   0   2  10 42677.6   483.8
   1   2  10 31287.1   332.0
   2   2  10 6975.75  132.68
   3   2  10 3702.15   76.10
   4   2  10 7662.05  212.45
   5   2  10  170.34   27.16
   6   2  10  704.22   35.52
   7   2  10 1608.99   86.07
   8   2  10 5546.33  286.22
   9   2  10 2831.98   98.10
  10   2  10   49.16   31.23
  11   2  10  712.36   41.23
 -13   3  10 1805.30  131.91
 -12   3  10 3546.19  124.26
 -11   3  10 1507.09   86.45
 -10   3  10 5943.73  232.86
  -9   3  10 9312.85  269.63
  -8   3  10 2358.01  108.37
  -7   3  10 5232.73  173.48
  -6   3  10 1711.53   86.15
  -5   3  10 35280.7   838.5
  -4   3  10 9115.69  237.18
  -3   3  10  452.47   33.55
  -2   3  10 5723.47  140.69
  -1   3  10 45297.1   764.4
   0   3  10 5843.97  149.24
   1   3  10 10683.2   187.3
   2   3  10 18852.9   529.9
   3   3  10 20633.1   379.2
   4   3  10  321.92   31.66
   5   3  10 3903.47  103.54
   6   3  10 4725.00  142.06
   7   3  10 1177.41   65.26
   8   3  10  191.81   66.59
   9   3  10 2227.15  107.98
  10   3  10 2510.12   95.99
  11   3  10  364.19   39.47
 -13   4  10  459.64   40.43
 -12   4  10 1500.24   47.97
 -11   4  10 4310.73   97.14
 -10   4  10 3066.86  154.03
  -9   4  10 1906.59   98.93
  -8   4  10 1860.19   84.83
  -7   4  10 3073.02  174.97
  -6   4  10 4690.39  185.06
  -5   4  10  216.11   46.87
  -4   4  10 4895.38  113.91
  -3   4  10 56151.0   752.4
  -2   4  10 2595.44   63.72
  -1   4  10  473.40   19.96
   0   4  10 8401.63  303.28
   1   4  10 32253.0   485.4
   2   4  10 5542.84  126.06
   3   4  10 10891.9   290.8
   4   4  10 10665.6   294.3
   5   4  10  187.71   33.93
   6   4  10  784.91   49.83
   7   4  10 2904.32  138.40
   8   4  10 3306.37  551.87
   9   4  10 1437.07   70.39
  10   4  10   29.56   35.90
  11   4  10  428.67   48.52
 -13   5  10 2182.18  266.07
 -12   5  10 1011.61   53.02
 -11   5  10   71.60   25.04
 -10   5  10   72.70   40.22
  -9   5  10 8799.87  488.85
  -8   5  10 5704.87  410.47
  -7   5  10   16.55   54.07
  -6   5  10   24.43   40.35
  -5   5  10 9366.85  206.05
  -4   5  10 18887.2   617.4
  -3   5  10 1836.40   58.35
  -2   5  10 14588.1   261.9
  -1   5  10 6130.92  298.32
   0   5  10 21509.2   640.7
   1   5  10 4627.23  178.48
   2   5  10 24085.4   336.0
   3   5  10  506.97   31.99
   4   5  10  812.26   46.08
   5   5  10 2285.84   72.40
   6   5  10 4604.39  115.96
   7   5  10 1244.71   74.74
   8   5  10  240.86   91.48
   9   5  10 1126.22   69.93
  10   5  10 1608.52   81.96
  11   5  10  178.92   58.28
 -13   6  10  265.69   72.16
 -12   6  10  401.48   37.04
 -11   6  10 2861.56  161.78
 -10   6  10  729.80   57.40
  -9   6  10  391.25   58.57
  -8   6  10 1501.57   95.74
  -7   6  10 2129.15  111.65
  -6   6  10 3977.31  111.01
  -5   6  10  228.43   34.96
  -4   6  10  921.74   32.41
  -3   6  10 8341.70  182.54
  -2   6  10 2444.95  103.78
  -1   6  10 1047.46   50.20
   0   6  10 11837.6   165.0
   1   6  10 3200.73   82.35
   2   6  10  101.69   31.74
   3   6  10 1976.37   96.78
   4   6  10 4990.31  156.58
   5   6  10   30.80   43.30
   6   6  10  867.73   64.84
   7   6  10  873.51   79.36
   8   6  10 1237.94  129.04
   9   6  10  608.29   40.30
  10   6  10   50.37   36.59
 -12   7  10  797.65   66.15
 -11   7  10   78.68   44.35
 -10   7  10  566.05   61.99
  -9   7  10 1511.16   71.41
  -8   7  10  121.06   45.45
  -7   7  10  765.61   48.06
  -6   7  10   82.83   31.09
  -5   7  10 8084.17  143.98
  -4   7  10 3183.48   81.87
  -3   7  10 2988.58   63.55
  -2   7  10 4983.50  131.73
  -1   7  10 3938.14  128.90
   0   7  10 2286.28   68.52
   1   7  10 4063.03  196.09
   2   7  10 4005.99  104.80
   3   7  10  314.65   43.49
   4   7  10  660.73   86.75
   5   7  10 3044.82  228.12
   6   7  10 1260.19   82.34
   7   7  10  124.53   78.72
   8   7  10    9.89   41.11
   9   7  10  239.00   31.69
  10   7  10  670.59   41.70
 -12   8  10  321.49   44.18
 -11   8  10  485.93   46.34
 -10   8  10   72.67   39.96
  -9   8  10   51.43   40.65
  -8   8  10 1435.76   69.83
  -7   8  10  280.44   50.28
  -6   8  10 1562.99   93.16
  -5   8  10 2963.54  109.98
  -4   8  10  802.90   45.20
  -3   8  10 1962.01   78.33
  -2   8  10 1962.47   64.38
  -1   8  10 1006.02   56.28
   0   8  10 6273.70  177.24
   1   8  10 1125.37   60.04
   2   8  10  115.43   42.74
   3   8  10   19.61   41.92
   4   8  10 2097.78  128.88
   5   8  10  331.23   56.35
   6   8  10  236.33   96.57
   7   8  10  329.19   54.55
   8   8  10  375.89   45.67
   9   8  10   78.23   26.36
  10   8  10  113.58   40.55
 -12   9  10   81.91   29.79
 -11   9  10   21.70   38.43
 -10   9  10  686.27   56.22
  -9   9  10   88.50   57.00
  -8   9  10  181.15   36.61
  -7   9  10  391.08   44.05
  -6   9  10  681.83   66.85
  -5   9  10  895.44   52.75
  -4   9  10   38.15   31.01
  -3   9  10 5181.83  138.44
  -2   9  10  761.59   59.51
  -1   9  10 3859.13  153.27
   0   9  10  299.52   40.48
   1   9  10 1864.97  147.15
   2   9  10  273.42   58.34
   3   9  10   29.19   48.25
   4   9  10  115.48   46.26
   5   9  10    0.00   49.38
   6   9  10    0.00   59.41
   7   9  10  124.82   42.52
   8   9  10  426.67  147.47
   9   9  10   32.95   25.89
 -11  10  10  681.54   58.43
 -10  10  10  762.91   60.70
  -9  10  10  823.16   52.21
  -8  10  10  218.84   41.00
  -7  10  10    2.82   37.75
  -6  10  10 2920.50  119.43
  -5  10  10  864.16   57.14
  -4  10  10 1307.12   61.37
  -3  10  10  934.57   54.80
  -2  10  10 1014.16   53.39
  -1  10  10   35.61   43.49
   0  10  10 3359.74  154.80
   1  10  10 1873.48   84.86
   2  10  10 1334.69   96.70
   3  10  10 1545.99   94.33
   4  10  10  447.53   69.49
   5  10  10  118.69   58.55
   6  10  10   42.41   71.00
   7  10  10  277.93   37.22
   8  10  10  612.75   39.83
   9  10  10  119.22   35.51
 -11  11  10 1302.19   70.88
 -10  11  10  227.68   38.26
  -9  11  10  280.08   35.79
  -8  11  10   43.18   34.14
  -7  11  10  129.74   40.98
  -6  11  10  431.75   52.10
  -5  11  10  380.68   36.90
  -4  11  10   60.30   37.03
  -3  11  10   37.22   36.19
  -2  11  10   16.29   36.57
  -1  11  10   87.45   39.71
   0  11  10  303.61   44.52
   1  11  10  230.83   38.35
   2  11  10   39.11   33.77
   3  11  10  331.35   55.27
   4  11  10    0.00   56.17
   5  11  10   65.91   50.48
   6  11  10   27.89   47.22
   7  11  10 1048.90   74.13
   8  11  10   42.57   36.62
   9  11  10  186.14   39.60
 -10  12  10 1759.87   71.30
  -9  12  10 1184.67   60.10
  -8  12  10  116.50   34.41
  -7  12  10  127.57   53.53
  -6  12  10 3441.20  148.25
  -5  12  10 2708.87   93.21
  -4  12  10 2517.99  121.04
  -3  12  10  494.91   42.37
  -2  12  10 1764.80   66.72
  -1  12  10 1354.85   72.62
   0  12  10  777.08   58.74
   1  12  10   92.10   39.36
   2  12  10 1249.67   72.62
   3  12  10   24.55   43.79
   4  12  10  798.18   80.00
   5  12  10  246.41   69.49
   6  12  10   45.70   46.23
   7  12  10   60.31   41.60
   8  12  10  999.19   89.73
 -10  13  10  598.20   51.87
  -9  13  10  957.86   65.28
  -8  13  10  403.65   58.40
  -7  13  10  180.38   38.19
  -6  13  10  614.20   65.09
  -5  13  10 2192.46  139.25
  -4  13  10 1124.48   75.08
  -3  13  10  492.07   54.58
  -2  13  10  414.23   38.64
  -1  13  10  241.81   43.25
   0  13  10  229.04   42.49
   1  13  10   93.72   44.29
   2  13  10  787.10   46.26
   3  13  10 1101.62   90.13
   4  13  10  119.06   61.25
   5  13  10  330.69   71.59
   6  13  10  624.00   49.27
   7  13  10  443.09   38.21
   8  13  10   37.91   36.80
  -9  14  10  388.53   43.78
  -8  14  10 1299.22  117.02
  -7  14  10 1085.24   76.78
  -6  14  10  925.79   51.41
  -5  14  10  198.84   50.03
  -4  14  10 3144.04  205.91
  -3  14  10 3147.68  177.45
  -2  14  10  238.80   42.20
  -1  14  10   85.42   34.31
   0  14  10  598.44   44.24
   1  14  10 3221.01  159.92
   2  14  10  983.15   71.52
   3  14  10  922.42   60.66
   4  14  10 1208.28   81.29
   5  14  10  518.99   56.68
   6  14  10  208.31   38.11
   7  14  10  218.39   39.25
  -8  15  10  955.60  148.72
  -7  15  10   42.79   34.71
  -6  15  10  887.49   75.21
  -5  15  10 2474.80  124.02
  -4  15  10 2203.83  172.94
  -3  15  10  362.95   37.03
  -2  15  10 1078.75  105.98
  -1  15  10   63.72   39.50
   0  15  10 1319.56   79.66
   1  15  10   22.01   36.20
   2  15  10 2122.64   90.63
   3  15  10  887.79  112.51
   4  15  10   24.62   47.67
   5  15  10  228.48   36.20
   6  15  10 1101.61   52.59
  -7  16  10  895.03   95.00
  -6  16  10  830.25   87.03
  -5  16  10   21.54   32.74
  -4  16  10 3474.11  139.72
  -3  16  10 1810.05  119.17
  -2  16  10   44.27   30.80
  -1  16  10   57.40   30.54
   0  16  10  739.26   42.60
   1  16  10 2214.36  122.82
   2  16  10  768.30   68.19
   3  16  10  413.64   44.62
   4  16  10  949.12   53.18
   5  16  10  816.50   63.00
  -6  17  10  682.50  119.70
  -5  17  10 2175.39  115.63
  -4  17  10 1182.77   67.46
  -3  17  10  157.55   38.91
  -2  17  10 1439.74   87.34
  -1  17  10  449.79   39.44
   0  17  10  964.20   69.20
   1  17  10   27.19   34.87
   2  17  10 1936.59   75.33
   3  17  10  760.77   57.62
   4  17  10   21.74   41.79
  -5  18  10  120.03   46.73
  -4  18  10  988.64   87.05
  -3  18  10 1464.50  108.58
  -2  18  10 1294.40  157.83
  -1  18  10  430.35   58.83
   0  18  10  981.55   56.55
   1  18  10 1510.96   94.52
   2  18  10  451.41   50.49
   3  18  10  541.44   84.12
  -2  19  10  842.32   74.96
 -13   1  11  571.02   29.80
 -12   1  11  158.32   31.81
 -11   1  11  118.99   52.00
 -10   1  11   12.92   80.17
  -9   1  11  282.89   49.12
  -8   1  11 1341.30   56.11
  -7   1  11 2274.31   63.61
  -6   1  11  139.81   25.59
  -5   1  11 1506.64   47.22
  -4   1  11   27.38   23.24
  -3   1  11  171.47   25.69
  -2   1  11  503.86   23.35
  -1   1  11  162.15   19.80
   0   1  11  317.24   22.14
   1   1  11   57.52   21.13
   2   1  11  160.75   19.08
   3   1  11    0.00   21.01
   4   1  11  806.23   32.75
   5   1  11   30.88   29.40
   6   1  11  179.50   31.02
   7   1  11  146.54   33.66
   8   1  11   76.04   35.74
   9   1  11    9.93   30.35
  10   1  11    6.46   26.61
  11   1  11   26.21   33.75
 -13   2  11  249.58   42.29
 -12   2  11  781.82   38.90
 -11   2  11  203.18   53.50
 -10   2  11   87.12   51.32
  -9   2  11  191.75   45.76
  -8   2  11  803.47   59.70
  -7   2  11  226.70   35.27
  -6   2  11 4668.26  104.18
  -5   2  11 2272.36   79.49
  -4   2  11 1149.76   37.12
  -3   2  11  173.78   21.44
  -2   2  11 1268.48   34.30
  -1   2  11 3798.39   63.75
   0   2  11 1835.75   38.46
   1   2  11  146.39   23.61
   2   2  11  183.73   21.42
   3   2  11 6014.37   84.49
   4   2  11  777.50   31.37
   5   2  11  195.41   29.93
   6   2  11  513.37   34.37
   7   2  11  304.40   38.28
   8   2  11   65.12   35.57
   9   2  11   44.26   35.27
  10   2  11  389.84   36.30
  11   2  11  137.60   36.07
 -13   3  11  974.10   44.49
 -12   3  11  139.63   28.91
 -11   3  11  643.69   45.23
 -10   3  11  467.77   59.73
  -9   3  11  388.22   64.54
  -8   3  11   20.16   50.57
  -7   3  11 3293.83  183.53
  -6   3  11 10916.2   376.0
  -5   3  11  316.54   39.54
  -4   3  11  825.70   36.87
  -3   3  11 2038.80   54.39
  -2   3  11 11457.8   238.2
  -1   3  11  536.79   25.92
   0   3  11 5017.50  140.89
   1   3  11 5841.14   88.14
   2   3  11 4698.83   66.71
   3   3  11  353.70   24.91
   4   3  11 4136.68  107.80
   5   3  11 3743.05   96.61
   6   3  11  206.22   37.36
   7   3  11  461.19   46.80
   8   3  11  300.41   62.26
   9   3  11  392.12   47.45
  10   3  11   82.32   31.09
 -13   4  11   46.76   89.28
 -12   4  11 2218.45   58.32
 -11   4  11 2197.05   56.46
 -10   4  11  160.28   45.31
  -9   4  11  866.55   75.31
  -8   4  11 3876.74  176.15
  -7   4  11 3628.41  151.46
  -6   4  11 7121.41  202.64
  -5   4  11 14658.2   324.4
  -4   4  11  896.70   40.00
  -3   4  11 4873.36   97.62
  -2   4  11 2538.03   58.91
  -1   4  11 13205.5   655.8
   0   4  11 10843.1   529.8
   1   4  11 1695.69   46.21
   2   4  11 9576.72  124.97
   3   4  11 3041.86   56.94
   4   4  11 5718.87  209.25
   5   4  11  422.11   36.76
   6   4  11 4891.41  111.82
   7   4  11 1441.07   85.94
   8   4  11    0.00   50.64
   9   4  11   45.16   40.98
  10   4  11  924.60   79.06
 -13   5  11 1477.67  120.83
 -12   5  11    6.17   24.68
 -11   5  11 1736.09   62.84
 -10   5  11 2929.60  119.35
  -9   5  11 5373.92  156.54
  -8   5  11 1069.46   87.55
  -7   5  11 10012.0   310.3
  -6   5  11 5756.02  118.07
  -5   5  11 1379.96   61.52
  -4   5  11 5114.37   84.38
  -3   5  11 6673.99  109.05
  -2   5  11 12613.2   245.7
  -1   5  11 2190.12   74.18
   0   5  11 8116.50  266.48
   1   5  11 15575.9   280.8
   2   5  11  635.47   38.37
   3   5  11  175.89   25.95
   4   5  11 2418.07   93.20
   5   5  11 9185.97  194.11
   6   5  11  768.74   57.43
   7   5  11 1919.57  132.43
   8   5  11 1115.55   66.19
   9   5  11  736.20   57.75
  10   5  11  188.26   39.88
 -12   6  11 3600.56  227.44
 -11   6  11  349.20   33.41
 -10   6  11   29.36   33.31
  -9   6  11 2565.57  112.02
  -8   6  11 13413.8   430.0
  -7   6  11 1044.29   49.48
  -6   6  11 2182.55   85.21
  -5   6  11 8200.97  156.02
  -4   6  11 8742.83  147.24
  -3   6  11 1628.54   38.52
  -2   6  11 12500.0   415.9
  -1   6  11 10815.5   415.6
   0   6  11 10268.3   361.9
   1   6  11    0.01   34.88
   2   6  11 5683.67  101.43
   3   6  11 4367.65  272.89
   4   6  11 7029.20  161.95
   5   6  11  937.83   51.80
   6   6  11 8121.17  203.25
   7   6  11 4878.48  197.68
   8   6  11    3.16   39.36
   9   6  11  240.77   45.85
  10   6  11 1041.16   87.05
 -12   7  11   45.07   39.60
 -11   7  11 4003.57  119.16
 -10   7  11 4380.83  153.08
  -9   7  11 3449.74  131.65
  -8   7  11   96.90   38.61
  -7   7  11 9087.09  426.19
  -6   7  11 13025.1   345.1
  -5   7  11  734.01   32.34
  -4   7  11 2902.06   65.66
  -3   7  11 5965.86  160.25
  -2   7  11 22579.6   476.4
  -1   7  11 1728.66   66.30
   0   7  11 5993.67  134.46
   1   7  11 9317.40  217.85
   2   7  11 3257.53   87.84
   3   7  11  266.15   38.40
   4   7  11 7202.44  151.91
   5   7  11 11920.9   330.4
   6   7  11 1655.78  126.78
   7   7  11 1106.04  100.78
   8   7  11 2178.83   81.52
   9   7  11  707.43   55.62
  10   7  11  113.31   38.26
 -12   8  11 5007.72  184.34
 -11   8  11 1680.57   78.50
 -10   8  11   53.89   35.86
  -9   8  11 3475.64  164.31
  -8   8  11 15091.5   410.0
  -7   8  11 2279.84  105.38
  -6   8  11 6585.03  245.59
  -5   8  11 9651.26  296.73
  -4   8  11 6846.65  234.51
  -3   8  11 1239.81   89.37
  -2   8  11 2518.63   83.64
  -1   8  11 17925.6   658.0
   0   8  11 8326.49  531.54
   1   8  11  101.16   37.28
   2   8  11 4255.62  120.43
   3   8  11 9965.89  215.62
   4   8  11 1984.10   78.26
   5   8  11 1041.57   61.02
   6   8  11 6532.83  503.78
   7   8  11 4583.65  320.09
   8   8  11  157.65   37.47
   9   8  11  427.71   48.86
 -12   9  11   28.66   44.56
 -11   9  11 2423.72  109.84
 -10   9  11 5282.38  305.46
  -9   9  11 2642.31  237.71
  -8   9  11  500.32   66.96
  -7   9  11 16714.5   389.6
  -6   9  11 14523.6   563.9
  -5   9  11 1003.16   74.65
  -4   9  11 1341.55   64.77
  -3   9  11 7766.79  414.45
  -2   9  11 10554.3   304.0
  -1   9  11  212.01   49.48
   0   9  11 6344.73  300.12
   1   9  11 9473.19  814.36
   2   9  11 6314.89  479.33
   3   9  11   11.86   43.75
   4   9  11 7121.95  253.73
   5   9  11 8515.44  465.95
   6   9  11  368.83   60.31
   7   9  11  691.28   48.16
   8   9  11 1526.26   60.45
   9   9  11 1231.28  304.44
 -11  10  11 3728.54  132.83
 -10  10  11   57.16   27.54
  -9  10  11 2118.38  220.41
  -8  10  11 6619.61  802.75
  -7  10  11 4315.06  172.08
  -6  10  11 5431.82  175.99
  -5  10  11 15323.1   440.0
  -4  10  11 9136.69  324.12
  -3  10  11 2349.60  172.04
  -2  10  11 1955.35  101.15
  -1  10  11 13366.2   472.2
   0  10  11 5859.22  465.85
   1  10  11   50.59   37.69
   2  10  11 5393.59  338.15
   3  10  11 10714.0   523.9
   4  10  11 2813.65  180.83
   5  10  11 1176.60  116.08
   6  10  11 6724.78  210.98
   7  10  11 1930.61   82.29
   8  10  11  114.70   33.02
   9  10  11  275.77   47.06
 -11  11  11 2534.73  136.06
 -10  11  11 7050.58  205.87
  -9  11  11  472.06   70.30
  -8  11  11  126.03   38.86
  -7  11  11 8472.51  632.74
  -6  11  11 12427.0   696.3
  -5  11  11  413.35   41.66
  -4  11  11 1629.26   80.95
  -3  11  11 2377.58  128.93
  -2  11  11 10098.0   785.7
  -1  11  11 2359.72  130.01
   0  11  11 5849.94  161.39
   1  11  11 10309.7   831.8
   2  11  11 3718.64  309.07
   3  11  11   26.88   48.58
   4  11  11 3374.59  313.85
   5  11  11 8422.38  850.83
   6  11  11  672.83   55.80
   7  11  11 1175.78   63.71
   8  11  11  921.02   47.05
 -10  12  11   84.52   33.87
  -9  12  11 4894.67  533.01
  -8  12  11 5965.80  473.89
  -7  12  11   44.13   35.18
  -6  12  11 1077.94   99.95
  -5  12  11 9490.54  330.62
  -4  12  11 4517.62  251.22
  -3  12  11   26.09   35.91
  -2  12  11  184.58   43.88
  -1  12  11 5313.58  156.59
   0  12  11 7013.40  406.38
   1  12  11  279.94   49.47
   2  12  11 3795.69  187.47
   3  12  11 3253.36  195.50
   4  12  11 3105.04  186.72
   5  12  11  170.41   48.11
   6  12  11 3417.28  149.31
   7  12  11 1600.92   90.95
   8  12  11   33.91   37.92
 -10  13  11 2711.37  428.91
  -9  13  11 3039.65  101.33
  -8  13  11 1243.17   73.66
  -7  13  11 4691.01  384.85
  -6  13  11  888.33   89.15
  -5  13  11 1200.60   92.29
  -4  13  11 2426.01   88.17
  -3  13  11 4733.81  266.48
  -2  13  11 1496.94  142.45
  -1  13  11   87.61   40.37
   0  13  11  849.75   52.78
   1  13  11 4260.44  198.63
   2  13  11 2222.87  190.77
   3  13  11  226.50   97.12
   4  13  11 2232.78   98.02
   5  13  11 3477.50  216.74
   6  13  11  582.58   45.06
   7  13  11  121.61   28.44
  -9  14  11 1576.62   79.70
  -8  14  11 2637.95  205.10
  -7  14  11  298.18   40.59
  -6  14  11  745.98   61.83
  -5  14  11 2413.28   90.24
  -4  14  11 2753.80  292.27
  -3  14  11  202.12   70.00
  -2  14  11 1667.19   68.51
  -1  14  11 3717.46  220.74
   0  14  11 1844.81  176.18
   1  14  11  251.88   52.22
   2  14  11 1021.23   85.08
   3  14  11 2768.57  153.88
   4  14  11  595.00   53.51
   5  14  11  130.15   38.70
   6  14  11 1627.41   66.34
   7  14  11 1127.55   93.33
  -8  15  11   69.64   62.23
  -7  15  11  983.81   79.18
  -6  15  11 1280.86   66.78
  -5  15  11  254.40   45.37
  -4  15  11  445.89   51.91
  -3  15  11 1366.39   95.89
  -2  15  11 1543.56  131.02
  -1  15  11   36.54   35.89
   0  15  11  557.31   40.61
   1  15  11 2747.05   90.40
   2  15  11 1627.92  112.37
   3  15  11   69.19   65.46
   4  15  11  948.05   70.41
   5  15  11 1080.70   70.14
   6  15  11  171.48   46.32
  -7  16  11  231.58   63.94
  -6  16  11  124.42   35.72
  -5  16  11  853.60  116.07
  -4  16  11 1292.39  127.70
  -3  16  11   63.42   36.85
  -2  16  11  811.22   43.04
  -1  16  11  482.29   35.67
   0  16  11  941.96   74.80
   1  16  11  515.10   42.63
   2  16  11  250.00   50.62
   3  16  11 1301.85   66.51
   4  16  11   89.41   41.71
   5  16  11  132.29   39.59
  -6  17  11  252.04   51.78
  -5  17  11  133.05   38.16
  -4  17  11  456.72  112.37
  -3  17  11  345.52   45.26
  -2  17  11   64.50   36.85
  -1  17  11   66.76   30.32
   0  17  11   10.65   37.42
   1  17  11  220.04   37.50
   2  17  11  710.96   49.33
   3  17  11   10.59   39.21
   4  17  11  777.35   85.95
  -4  18  11    2.81   49.57
  -3  18  11    0.00   53.03
  -2  18  11   38.67   92.04
  -1  18  11    1.61   38.22
   0  18  11  474.32   45.06
   1  18  11  115.19   43.85
   2  18  11  119.62   72.81
 -13   0  12 1215.01   73.91
 -12   0  12  606.27   64.93
 -11   0  12  182.47   93.34
 -10   0  12 5404.57  314.57
  -9   0  12 4181.95  184.95
  -8   0  12 3565.24  166.40
  -7   0  12 1157.30   76.29
  -6   0  12 24892.6   531.9
  -5   0  12 30763.7   614.9
  -4   0  12 2601.64   69.06
  -3   0  12 29484.7   556.0
  -2   0  12 50114.3   907.5
  -1   0  12 9381.95  221.18
   0   0  12 14768.4   329.5
   1   0  12 13306.8   196.8
   2   0  12 17989.6   233.1
   3   0  12  304.71   31.64
   4   0  12 7504.24  167.86
   5   0  12 11207.7   282.3
   6   0  12 5538.34  133.59
   7   0  12  353.18   52.00
   8   0  12 3476.09  146.94
   9   0  12 5035.73  153.32
  10   0  12  606.17   97.69
 -13   1  12 1365.25   53.27
 -12   1  12 1948.07   62.57
 -11   1  12 3999.58  177.35
 -10   1  12  735.96  114.70
  -9   1  12 1527.83   87.85
  -8   1  12 18250.4   402.3
  -7   1  12 7609.56  159.86
  -6   1  12  174.09   27.46
  -5   1  12 8225.28  172.62
  -4   1  12 56428.7   764.2
  -3   1  12 5691.07   87.64
  -2   1  12 21230.4   466.1
  -1   1  12 44972.4   808.3
   0   1  12 20733.7   245.4
   1   1  12 13312.4   120.3
   2   1  12 13848.3   143.4
   3   1  12 8676.66  112.35
   4   1  12 7224.50  101.07
   5   1  12  841.26   37.19
   6   1  12 2660.14   72.98
   7   1  12 5441.02  122.42
   8   1  12 2804.58   81.28
   9   1  12   26.39   32.54
  10   1  12 2242.16   95.84
 -13   2  12 1259.07   48.54
 -12   2  12  124.13   27.92
 -11   2  12  393.18   39.75
 -10   2  12 7878.88  234.48
  -9   2  12 7336.81  263.02
  -8   2  12  193.54   55.70
  -7   2  12 5387.99  244.20
  -6   2  12 10647.0   321.9
  -5   2  12 17275.2   426.7
  -4   2  12  359.59   26.67
  -3   2  12 33211.4   365.8
  -2   2  12 17511.7   341.8
  -1   2  12 1335.41   59.13
   0   2  12 4988.38   63.89
   1   2  12 18746.2   179.7
   2   2  12 21926.1   232.7
   3   2  12  286.19   23.55
   4   2  12 2893.29   54.70
   5   2  12 7966.21  191.76
   6   2  12 4233.90   85.31
   7   2  12  446.82   47.53
   8   2  12 3231.71   83.29
   9   2  12 5567.33  147.21
  10   2  12  672.46   41.15
 -13   3  12 1216.25   47.07
 -12   3  12 1721.94   55.73
 -11   3  12 3293.79  102.54
 -10   3  12  103.50   43.47
  -9   3  12 3247.03  207.15
  -8   3  12 12898.3   350.5
  -7   3  12 4787.66  137.14
  -6   3  12  138.83   33.38
  -5   3  12 3959.31   94.72
  -4   3  12 57785.4   955.0
  -3   3  12 1085.29   30.65
  -2   3  12 8764.71  194.12
  -1   3  12 18390.2   636.0
   0   3  12 11258.0   135.9
   1   3  12 7854.63   87.53
   2   3  12 5656.91   86.33
   3   3  12 10091.0   122.9
   4   3  12 2548.97   71.04
   5   3  12  873.56   38.09
   6   3  12 1036.29   44.01
   7   3  12 4424.31  117.19
   8   3  12 4241.70  113.04
   9   3  12    0.00   39.40
  10   3  12 1375.76  120.59
 -13   4  12 1060.58  104.43
 -12   4  12   23.25   21.76
 -11   4  12  233.89   32.06
 -10   4  12 5750.03  226.51
  -9   4  12 4864.60  220.00
  -8   4  12  734.11   67.51
  -7   4  12  813.61   56.31
  -6   4  12 12538.1   259.7
  -5   4  12 13630.2   247.8
  -4   4  12   97.13   22.22
  -3   4  12 23259.2   270.9
  -2   4  12 22039.8   268.4
  -1   4  12 1862.33   71.57
   0   4  12 3466.23   66.26
   1   4  12 8744.02  139.04
   2   4  12 12741.7   165.2
   3   4  12  582.18   28.00
   4   4  12 2610.11   58.43
   5   4  12 3872.61   74.74
   6   4  12 1743.08   57.79
   7   4  12 1125.03   68.83
   8   4  12 2231.48   77.83
   9   4  12 4161.38  117.41
  10   4  12  277.56   33.11
 -13   5  12  741.71   88.53
 -12   5  12  604.47   29.05
 -11   5  12 1043.54   43.33
 -10   5  12  555.83   61.15
  -9   5  12 2370.61   84.79
  -8   5  12 12742.4   383.3
  -7   5  12 4398.50  120.54
  -6   5  12 1333.41   61.21
  -5   5  12 3658.00   77.58
  -4   5  12 23886.3   495.8
  -3   5  12 1787.41   37.90
  -2   5  12 1472.97   44.31
  -1   5  12 24819.4   544.9
   0   5  12 7910.04  286.69
   1   5  12  703.96   35.68
   2   5  12 2800.75   55.25
   3   5  12 6886.09  103.30
   4   5  12 2855.55   80.16
   5   5  12    0.00   31.21
   6   5  12  392.20   45.63
   7   5  12 2742.34  100.71
   8   5  12 1963.12   64.14
   9   5  12   34.43   40.66
  10   5  12  786.89   54.79
 -12   6  12   38.62   31.97
 -11   6  12  324.31   25.57
 -10   6  12 1726.84   61.48
  -9   6  12 2811.07  134.94
  -8   6  12 1581.62   70.80
  -7   6  12 1939.31   82.00
  -6   6  12 7008.59  121.19
  -5   6  12 4107.66   80.80
  -4   6  12  121.32   24.10
  -3   6  12 15172.9   224.3
  -2   6  12 15527.0   507.1
  -1   6  12  749.53   34.95
   0   6  12  145.96   23.42
   1   6  12 8184.24  132.57
   2   6  12 3350.13   85.74
   3   6  12  332.00   36.22
   4   6  12  372.04   41.71
   5   6  12 4077.38  107.77
   6   6  12 2496.85   93.79
   7   6  12   99.53   53.81
   8   6  12  659.01   46.24
   9   6  12 1358.01   76.07
  10   6  12  322.81   51.03
 -12   7  12  907.74  117.83
 -11   7  12  190.26   35.12
 -10   7  12   82.69   34.98
  -9   7  12    9.86   36.76
  -8   7  12 3424.17  133.05
  -7   7  12 2500.68   73.09
  -6   7  12 1499.75   67.20
  -5   7  12 3150.76   72.18
  -4   7  12 7645.33  130.26
  -3   7  12  657.39   28.62
  -2   7  12 1085.28   39.18
  -1   7  12 7410.96  177.34
   0   7  12 1873.46   88.35
   1   7  12   52.23   31.84
   2   7  12 1939.12   64.40
   3   7  12  209.52   36.22
   4   7  12 1442.70   74.32
   5   7  12  198.74   41.92
   6   7  12  122.73   52.32
   7   7  12 2325.12   90.14
   8   7  12  339.33   39.27
   9   7  12   12.13   30.53
 -12   8  12  132.60   79.76
 -11   8  12    0.63   41.23
 -10   8  12   65.91   34.31
  -9   8  12   86.46   90.89
  -8   8  12  659.45   66.27
  -7   8  12    1.34   52.28
  -6   8  12 5089.41  227.42
  -5   8  12  370.19   97.42
  -4   8  12  207.63   35.11
  -3   8  12  616.72   55.75
  -2   8  12 5675.11  284.03
  -1   8  12  149.28   32.87
   0   8  12  611.94   51.70
   1   8  12 1141.44   69.52
   2   8  12   15.11   41.96
   3   8  12  643.24   56.03
   4   8  12  411.79   46.53
   5   8  12 1282.49   75.73
   6   8  12  265.36   53.57
   7   8  12   91.13   37.48
   8   8  12   75.75   32.76
   9   8  12  630.25   59.17
 -11   9  12   94.20   44.90
 -10   9  12  197.34   32.74
  -9   9  12  463.35   52.01
  -8   9  12  171.08   44.74
  -7   9  12  378.91   61.43
  -6   9  12  107.04   53.43
  -5   9  12  986.92   77.77
  -4   9  12  388.17   43.91
  -3   9  12   33.25   34.09
  -2   9  12   78.19   40.29
  -1   9  12 2316.91  110.95
   0   9  12   50.49   38.25
   1   9  12 1394.27   95.09
   2   9  12   17.57   53.57
   3   9  12   52.99   53.04
   4   9  12  413.70   55.84
   5   9  12    0.00   42.88
   6   9  12    0.00   44.10
   7   9  12  243.76   35.48
   8   9  12  222.47   35.75
   9   9  12   38.38   50.90
 -11  10  12   48.92   35.27
 -10  10  12   39.91   26.50
  -9  10  12  247.43   34.57
  -8  10  12   83.52   69.78
  -7  10  12 1085.10   98.29
  -6  10  12  899.17   78.10
  -5  10  12  144.67   41.76
  -4  10  12  836.17   54.87
  -3  10  12  456.99   48.24
  -2  10  12  707.05   56.51
  -1  10  12   57.51   40.09
   0  10  12  141.68   49.33
   1  10  12    0.00   52.99
   2  10  12  310.06   48.76
   3  10  12   29.87   62.38
   4  10  12  642.02   76.91
   5  10  12    0.00   49.15
   6  10  12   67.01   40.54
   7  10  12    0.04   34.31
   8  10  12   17.25   26.88
 -11  11  12  472.26   63.53
 -10  11  12   83.00   34.46
  -9  11  12  814.83   79.28
  -8  11  12   82.37   32.49
  -7  11  12   67.38   71.12
  -6  11  12  303.13   43.02
  -5  11  12  172.08   42.70
  -4  11  12  606.18   52.50
  -3  11  12  583.60   46.07
  -2  11  12   55.05   43.79
  -1  11  12  106.44   41.13
   0  11  12  201.70   45.84
   1  11  12  670.53   67.35
   2  11  12   35.51   49.53
   3  11  12  364.70   57.28
   4  11  12  331.58   57.97
   5  11  12  108.80   43.41
   6  11  12  154.21   42.63
   7  11  12    4.80   36.79
   8  11  12   10.91   25.55
 -10  12  12  908.85   49.23
  -9  12  12  242.37   31.28
  -8  12  12   88.20   33.31
  -7  12  12  801.86   73.03
  -6  12  12  160.71   71.62
  -5  12  12  504.31   53.88
  -4  12  12   74.45   41.38
  -3  12  12  617.33   68.66
  -2  12  12  134.53   37.89
  -1  12  12  209.26   40.91
   0  12  12  570.49   60.63
   1  12  12 1229.53  104.37
   2  12  12  862.16   61.60
   3  12  12   32.77   61.67
   4  12  12  390.24   43.39
   5  12  12  398.20   48.57
   6  12  12  123.88   38.32
   7  12  12   41.32   28.37
  -9  13  12 1336.65  250.81
  -8  13  12  923.57  114.74
  -7  13  12    0.00   36.36
  -6  13  12  231.40   38.99
  -5  13  12  342.37   45.98
  -4  13  12 3748.46  167.61
  -3  13  12  388.80   45.10
  -2  13  12  196.29   37.77
  -1  13  12   16.15   35.55
   0  13  12  752.88   74.49
   1  13  12  678.68   84.45
   2  13  12  184.87   78.27
   3  13  12 3035.47  152.64
   4  13  12  310.59   48.05
   5  13  12   40.37   38.84
   6  13  12  146.78   34.84
   7  13  12  334.84   64.37
  -9  14  12 2073.73  132.51
  -8  14  12   89.45   30.50
  -7  14  12  381.34   40.18
  -6  14  12  184.79   38.69
  -5  14  12  816.39   92.91
  -4  14  12  151.27   41.47
  -3  14  12 2112.39  168.44
  -2  14  12  662.61   56.78
  -1  14  12   45.49   45.62
   0  14  12   70.74   47.38
   1  14  12 1635.24  116.26
   2  14  12 2199.37  104.90
   3  14  12    5.00   43.96
   4  14  12 1287.79   78.87
   5  14  12  740.21   51.17
   6  14  12  158.49   48.52
  -8  15  12 1404.76  164.53
  -7  15  12  384.83   56.04
  -6  15  12   54.51   32.57
  -5  15  12  539.09   48.15
  -4  15  12 2261.86  203.87
  -3  15  12  909.76   69.85
  -2  15  12  402.92   39.33
  -1  15  12  407.37   40.71
   0  15  12 1323.23   54.45
   1  15  12  716.07   52.99
   2  15  12  481.91   56.08
   3  15  12 3362.19  231.92
   4  15  12  702.54   49.58
   5  15  12    0.00   42.83
  -7  16  12  579.93   72.49
  -6  16  12  768.13   46.25
  -5  16  12  866.31   62.26
  -4  16  12   54.51   31.33
  -3  16  12 1752.21  160.12
  -2  16  12  578.39   51.28
  -1  16  12  130.02   31.62
   0  16  12   47.69   29.72
   1  16  12 1866.01   59.21
   2  16  12 1955.56   76.89
   3  16  12  103.77   46.27
   4  16  12  749.36   94.27
  -5  17  12  377.96   60.68
  -4  17  12 1623.97   77.72
  -3  17  12  829.31   57.89
  -2  17  12  354.40   38.44
  -1  17  12  540.29   48.25
   0  17  12 1884.65   75.30
   1  17  12  436.03   49.16
   2  17  12  567.96   42.38
   3  17  12 1246.13   82.79
  -3  18  12  924.72   74.76
  -2  18  12 2245.07  299.80
  -1  18  12  325.85   86.84
   0  18  12   94.55   64.53
   1  18  12 1331.60  113.85
 -13   1  13  278.02   28.25
 -12   1  13    1.17   23.90
 -11   1  13  117.00   60.60
 -10   1  13  387.56   74.59
  -9   1  13  623.94   77.24
  -8   1  13  287.47   42.56
  -7   1  13   53.63   33.67
  -6   1  13   32.73   28.36
  -5   1  13   26.03   21.66
  -4   1  13   25.15   18.70
  -3   1  13 1937.75   44.95
  -2   1  13  284.98   19.45
  -1   1  13   66.61   20.18
   0   1  13 1120.07   25.78
   1   1  13  421.14   19.82
   2   1  13  487.80   21.85
   3   1  13    1.49   22.37
   4   1  13  198.91   26.04
   5   1  13  517.61   31.82
   6   1  13  694.49   34.51
   7   1  13   92.58   34.35
   8   1  13   66.15   29.85
   9   1  13   29.36   33.16
  10   1  13  214.16   46.41
 -13   2  13   57.74   24.36
 -12   2  13  526.09   30.45
 -11   2  13  499.87   71.25
 -10   2  13  440.09   91.97
  -9   2  13  370.41  100.76
  -8   2  13  341.32   46.01
  -7   2  13  105.55   33.57
  -6   2  13  123.08   30.61
  -5   2  13  275.96   27.87
  -4   2  13 2483.02   50.80
  -3   2  13   17.48   19.11
  -2   2  13  681.94   22.51
  -1   2  13  175.69   21.63
   0   2  13 6313.17   80.00
   1   2  13   27.02   16.76
   2   2  13   56.28   20.19
   3   2  13  165.90   24.27
   4   2  13  295.05   28.05
   5   2  13  450.93   32.89
   6   2  13  585.95   35.83
   7   2  13  207.38   38.06
   8   2  13   80.39   29.66
   9   2  13  112.90   34.84
  10   2  13  167.73   28.71
 -13   3  13  929.03   59.80
 -12   3  13  746.59   29.04
 -11   3  13  332.38   40.57
 -10   3  13  604.50   78.46
  -9   3  13 1110.10   79.24
  -8   3  13 1366.72   64.98
  -7   3  13  246.14   37.86
  -6   3  13 3351.32  121.92
  -5   3  13  679.46   31.73
  -4   3  13  913.26   29.81
  -3   3  13 1829.28   50.50
  -2   3  13 5541.99  122.14
  -1   3  13 3469.72   62.20
   0   3  13   48.98   17.57
   1   3  13 11358.2   144.3
   2   3  13 2548.34   42.77
   3   3  13  400.93   25.54
   4   3  13    0.00   27.35
   5   3  13 2157.05   55.47
   6   3  13  975.65   44.16
   7   3  13    0.00   40.91
   8   3  13  200.61   37.34
   9   3  13  587.81   43.85
  10   3  13  362.57   36.19
 -12   4  13 1987.14   43.29
 -11   4  13 1757.54   48.24
 -10   4  13  592.10   68.78
  -9   4  13  294.50   41.51
  -8   4  13 1756.44   62.33
  -7   4  13 3289.71   97.38
  -6   4  13  228.03   32.25
  -5   4  13 4495.67  128.12
  -4   4  13 5100.27   89.42
  -3   4  13 9407.47  129.37
  -2   4  13 1045.08   27.79
  -1   4  13 3711.25  136.25
   0   4  13 13754.3   233.1
   1   4  13 3641.01   57.39
   2   4  13  222.98   23.76
   3   4  13 1528.86   40.30
   4   4  13 2703.98   59.31
   5   4  13   39.45   28.56
   6   4  13 2250.21   68.68
   7   4  13 3291.46  140.62
   8   4  13  410.81   41.33
   9   4  13   53.84   34.33
  10   4  13   70.86   32.65
 -12   5  13  774.67   48.57
 -11   5  13  492.96   24.02
 -10   5  13 1645.89   52.86
  -9   5  13 3721.16   98.94
  -8   5  13 2669.04   76.21
  -7   5  13  944.69   51.09
  -6   5  13 9332.50  157.86
  -5   5  13 5046.77   88.81
  -4   5  13  232.36   23.59
  -3   5  13 1891.62   54.72
  -2   5  13 10004.5   218.6
  -1   5  13 7675.20  190.40
   0   5  13   46.02   22.36
   1   5  13 19235.7   355.5
   2   5  13 11745.5   228.7
   3   5  13 2057.28   53.40
   4   5  13   35.08   33.11
   5   5  13 5973.54  119.38
   6   5  13 4339.03  137.90
   7   5  13    0.00   44.03
   8   5  13  855.05   60.15
   9   5  13  580.46   58.08
 -12   6  13 3794.49  228.11
 -11   6  13 1795.39   92.13
 -10   6  13  552.16   29.12
  -9   6  13   36.46   37.02
  -8   6  13 4110.14  127.73
  -7   6  13 6200.56  143.42
  -6   6  13   83.76   26.54
  -5   6  13 9220.52  148.55
  -4   6  13 6724.24   99.27
  -3   6  13 10788.9   131.5
  -2   6  13 2599.35   53.29
  -1   6  13 3026.65   74.51
   0   6  13 16896.7   504.9
   1   6  13 5389.87   87.46
   2   6  13  689.45   35.90
   3   6  13 2630.34   63.19
   4   6  13 3920.91  117.59
   5   6  13 1059.08   52.07
   6   6  13  845.87   75.68
   7   6  13 4345.96  115.14
   8   6  13  854.10   52.84
   9   6  13   77.56   28.16
 -12   7  13  791.88  106.22
 -11   7  13  772.60   57.99
 -10   7  13 3293.82  188.88
  -9   7  13 5130.73  163.38
  -8   7  13 1472.18   52.31
  -7   7  13  500.66   35.60
  -6   7  13 9407.75  167.50
  -5   7  13 6560.55  117.93
  -4   7  13  254.16   25.92
  -3   7  13 2999.27  100.62
  -2   7  13 8116.88  242.00
  -1   7  13 12760.7   264.8
   0   7  13   91.24   41.17
   1   7  13 16885.5   258.5
   2   7  13 6154.80  162.71
   3   7  13 2862.62  113.24
   4   7  13   27.38   36.44
   5   7  13 8278.04  318.25
   6   7  13 3782.45  137.38
   7   7  13  232.81   37.35
   8   7  13  169.15   42.61
   9   7  13  802.70   47.60
 -12   8  13 2501.18  158.04
 -11   8  13 3945.86  203.60
 -10   8  13  511.72   53.51
  -9   8  13  459.32   43.35
  -8   8  13 4993.05  148.45
  -7   8  13 9264.95  214.31
  -6   8  13   47.56   48.93
  -5   8  13 3062.72  145.55
  -4   8  13 11327.4   299.5
  -3   8  13 8865.39  213.91
  -2   8  13  852.09   65.44
  -1   8  13 4066.18  129.21
   0   8  13 15341.0   562.6
   1   8  13 6052.53  151.04
   2   8  13   89.96   39.59
   3   8  13 6091.33  247.45
   4   8  13 5052.25  119.57
   5   8  13 2534.57   96.38
   6   8  13 1582.02   62.40
   7   8  13 2964.18   99.88
   8   8  13  535.77   42.63
   9   8  13   96.21   50.79
 -11   9  13  314.59   41.78
 -10   9  13 3644.19  300.01
  -9   9  13 6824.19  214.13
  -8   9  13  880.57  102.43
  -7   9  13  669.44   72.00
  -6   9  13 7020.24  192.11
  -5   9  13 10543.0   420.0
  -4   9  13  301.38   44.42
  -3   9  13 4248.06  232.35
  -2   9  13 8215.72  361.57
  -1   9  13 14851.5   606.7
   0   9  13  197.70   47.19
   1   9  13 17272.5   410.0
   2   9  13 11622.7   313.3
   3   9  13 2288.18  115.01
   4   9  13   17.81   42.46
   5   9  13 8411.62  237.80
   6   9  13 4160.04  112.62
   7   9  13    2.73   29.15
   8   9  13  342.91   45.00
 -11  10  13 3326.97  132.76
 -10  10  13  428.29   46.40
  -9  10  13   83.80   31.19
  -8  10  13 4920.27  158.13
  -7  10  13 9823.17  250.13
  -6  10  13    0.06   41.64
  -5  10  13  576.02   58.54
  -4  10  13 10996.7   292.5
  -3  10  13 10799.2   789.3
  -2  10  13  221.72   46.12
  -1  10  13 3857.96  146.51
   0  10  13 15997.5   756.1
   1  10  13 5286.53  285.09
   2  10  13 1453.71  115.65
   3  10  13 5790.42  257.21
   4  10  13 3100.13  160.06
   5  10  13 1650.35  123.93
   6  10  13 1632.95   60.71
   7  10  13 2351.90  106.25
   8  10  13  763.60   82.78
 -10  11  13 2767.85  141.40
  -9  11  13 4106.74  220.26
  -8  11  13 1719.82  102.26
  -7  11  13 1310.23   67.09
  -6  11  13 3655.76  108.94
  -5  11  13 5408.85  226.26
  -4  11  13  737.54   81.81
  -3  11  13 2420.35  201.90
  -2  11  13 6274.08  324.59
  -1  11  13 7805.82  569.96
   0  11  13  334.86   46.10
   1  11  13 8358.91  391.53
   2  11  13 8878.65  215.08
   3  11  13 1429.30   84.73
   4  11  13   89.61   45.89
   5  11  13 4147.84  120.81
   6  11  13 2303.73  129.42
   7  11  13    7.01   31.16
 -10  12  13  443.69   47.65
  -9  12  13  742.06   59.99
  -8  12  13 2384.11  123.16
  -7  12  13 4368.18  114.16
  -6  12  13  126.20   49.48
  -5  12  13 1736.47   97.43
  -4  12  13 2245.63  116.25
  -3  12  13 4295.81  341.19
  -2  12  13  570.01   76.79
  -1  12  13 2263.95  112.40
   0  12  13 5140.34  300.15
   1  12  13 2121.16  169.56
   2  12  13  295.62   54.42
   3  12  13 4121.96  169.41
   4  12  13 3719.32  117.86
   5  12  13  548.46   46.38
   6  12  13  506.60   39.66
   7  12  13 1354.72   51.97
  -9  13  13 2798.30  111.63
  -8  13  13  227.01   35.56
  -7  13  13  446.15   39.22
  -6  13  13 1928.33   80.02
  -5  13  13 2491.49  267.73
  -4  13  13    0.18   44.28
  -3  13  13  453.11   71.89
  -2  13  13 2968.79  199.36
  -1  13  13 4126.40  417.79
   0  13  13   68.10   44.30
   1  13  13 3073.67  159.44
   2  13  13 4667.84  174.86
   3  13  13  663.39   61.55
   4  13  13  304.80   43.52
   5  13  13 1941.44  113.78
   6  13  13 1506.29   67.44
  -8  14  13 1962.04  104.63
  -7  14  13 1442.18   83.29
  -6  14  13   77.72   44.49
  -5  14  13  197.03   46.10
  -4  14  13 2367.14  223.82
  -3  14  13 1331.07  128.56
  -2  14  13   71.82   35.64
  -1  14  13  417.77   46.58
   0  14  13 3055.31   90.05
   1  14  13 1015.41   70.42
   2  14  13  375.72   61.85
   3  14  13 2450.19   91.26
   4  14  13 1317.02   63.99
   5  14  13  267.02   36.81
  -8  15  13    0.00   49.77
  -7  15  13  284.66   43.88
  -6  15  13  792.04   50.96
  -5  15  13 2273.07   85.52
  -4  15  13  266.26   40.46
  -3  15  13  801.66   94.38
  -2  15  13 1353.99   65.97
  -1  15  13 1172.03   50.33
   0  15  13  116.07   31.46
   1  15  13 1009.71   64.12
   2  15  13 2406.98   85.28
   3  15  13  394.38   55.17
   4  15  13  479.79   39.75
   5  15  13 1344.91  187.28
  -6  16  13   17.95   32.79
  -5  16  13   19.80   30.35
  -4  16  13  903.60   61.99
  -3  16  13 1079.59   92.76
  -2  16  13  100.94   28.19
  -1  16  13  350.97   34.56
   0  16  13  701.17   41.92
   1  16  13  553.02   47.56
   2  16  13   38.32   34.47
   3  16  13 2095.55   91.57
   4  16  13  703.79   70.06
  -5  17  13  221.10   47.89
  -4  17  13  298.90   89.15
  -3  17  13  193.76   46.86
  -2  17  13  681.79   99.14
  -1  17  13  538.78   42.73
   0  17  13   58.87   48.05
   1  17  13  148.27   50.21
   2  17  13 1096.80   77.26
  -2  18  13   77.58   69.40
  -1  18  13    0.00   65.84
 -13   0  14 1349.54   70.87
 -12   0  14 1594.64   93.48
 -11   0  14 1633.36  144.55
 -10   0  14  534.92  113.14
  -9   0  14 15420.5   707.3
  -8   0  14 14448.5   871.0
  -7   0  14 1087.74   77.53
  -6   0  14 14692.9   496.8
  -5   0  14 20295.1   552.9
  -4   0  14 16084.2   461.9
  -3   0  14 7823.64  260.93
  -2   0  14 17696.3   289.0
  -1   0  14 5044.65   95.41
   0   0  14 3925.46   69.94
   1   0  14 4093.77   73.07
   2   0  14 21247.2   321.5
   3   0  14 5825.89  126.29
   4   0  14   50.26   41.75
   5   0  14 3408.67  120.32
   6   0  14 8854.40  309.75
   7   0  14  697.16   58.09
   8   0  14   85.82   46.01
   9   0  14 4194.01  181.72
  10   0  14 1082.19   93.59
 -13   1  14  375.27   33.38
 -12   1  14   27.26   19.17
 -11   1  14 1819.09   77.26
 -10   1  14 6702.14  254.37
  -9   1  14 2003.47  163.86
  -8   1  14 6601.40  147.70
  -7   1  14 11274.0   222.9
  -6   1  14 5083.48  102.52
  -5   1  14 2270.16   52.34
  -4   1  14 16297.9   333.8
  -3   1  14 31066.3   411.5
  -2   1  14  849.27   25.35
  -1   1  14 2611.43   46.25
   0   1  14 6117.47   76.38
   1   1  14 9177.20   99.87
   2   1  14 2814.71   49.02
   3   1  14 5501.53   85.97
   4   1  14 15575.1   209.7
   5   1  14 2491.82   57.49
   6   1  14    6.49   38.15
   7   1  14 3857.98   98.20
   8   1  14 6561.33  147.10
   9   1  14  792.01   52.24
  10   1  14  317.68   61.17
 -13   2  14 1697.41   62.00
 -12   2  14 1737.67   60.57
 -11   2  14  909.22   55.99
 -10   2  14  434.08   58.75
  -9   2  14 13638.1   287.8
  -8   2  14 6604.31  162.72
  -7   2  14  478.57   48.14
  -6   2  14 9286.53  160.48
  -5   2  14 23923.5   318.6
  -4   2  14 14765.2   189.3
  -3   2  14 7188.08  119.30
  -2   2  14 15348.0   176.4
  -1   2  14 5494.15   87.59
   0   2  14 1023.56   26.69
   1   2  14  899.31   25.70
   2   2  14 13216.4   145.5
   3   2  14 13756.7   165.8
   4   2  14   16.96   28.81
   5   2  14 4865.02   94.04
   6   2  14 10217.4   202.7
   7   2  14 2044.06   68.06
   8   2  14    5.38   41.16
   9   2  14 2843.54   85.68
 -12   3  14   77.51   18.03
 -11   3  14 2164.32   73.48
 -10   3  14 6514.13  172.89
  -9   3  14  751.47   54.67
  -8   3  14 4026.86  115.33
  -7   3  14 5595.03  113.09
  -6   3  14 1791.67   50.59
  -5   3  14  924.72   35.84
  -4   3  14 16981.4   216.0
  -3   3  14 16801.5   220.6
  -2   3  14  226.02   22.12
  -1   3  14 1853.08   45.99
   0   3  14 10499.6   137.3
   1   3  14 4824.50   66.71
   2   3  14 3272.14   53.16
   3   3  14 1292.81   35.38
   4   3  14 8670.87  129.08
   5   3  14 3252.46   72.76
   6   3  14   39.17   32.78
   7   3  14 2630.54   74.93
   8   3  14 6095.34  160.35
   9   3  14 1458.94   66.00
 -12   4  14 1146.37   41.31
 -11   4  14  916.74   38.05
 -10   4  14  472.42   35.37
  -9   4  14 9863.62  257.72
  -8   4  14 2986.07   80.75
  -7   4  14  301.61   32.52
  -6   4  14 7015.11  152.33
  -5   4  14 11759.8   262.0
  -4   4  14 7548.33  104.09
  -3   4  14 8146.85  144.70
  -2   4  14 14023.5   282.6
  -1   4  14 4906.24  120.72
   0   4  14  555.18   30.00
   1   4  14 1465.94   36.86
   2   4  14 7019.50   95.57
   3   4  14 4022.77   70.94
   4   4  14    7.55   30.31
   5   4  14 1641.25   55.46
   6   4  14 8533.39  210.02
   7   4  14 2126.89   74.11
   8   4  14   23.82   31.73
   9   4  14 1041.34   55.40
 -12   5  14   15.75   30.39
 -11   5  14 1893.47   46.90
 -10   5  14 3805.97   94.67
  -9   5  14  284.19   35.98
  -8   5  14  540.45   39.57
  -7   5  14 3462.90  125.24
  -6   5  14 3886.15   92.47
  -5   5  14 2226.29   49.20
  -4   5  14 8203.67  126.30
  -3   5  14 15681.7   221.8
  -2   5  14    4.29   24.97
  -1   5  14 2409.32   55.58
   0   5  14 4185.46   93.19
   1   5  14 4128.75   69.84
   2   5  14  547.57   32.00
   3   5  14  873.89   37.35
   4   5  14 8083.67  161.51
   5   5  14 3842.02   98.11
   6   5  14   36.05   50.74
   7   5  14 1631.80  108.00
   8   5  14 2339.66   78.91
   9   5  14  363.63   37.71
 -12   6  14  905.03  107.08
 -11   6  14  173.49   22.68
 -10   6  14   16.21   23.01
  -9   6  14 3432.82  109.05
  -8   6  14 3579.46  124.17
  -7   6  14   24.50   27.21
  -6   6  14 3457.14   99.96
  -5   6  14 5300.93   94.40
  -4   6  14 1450.43   35.18
  -3   6  14 3630.72  117.06
  -2   6  14 9080.79  210.78
  -1   6  14 5153.80  142.61
   0   6  14  281.90   28.85
   1   6  14  316.79   29.27
   2   6  14 3987.37   81.53
   3   6  14 5438.47   92.47
   4   6  14  227.60   37.38
   5   6  14  711.93   51.24
   6   6  14 5044.44  162.75
   7   6  14 1015.01   52.50
   8   6  14  208.77   31.70
   9   6  14  861.42   46.17
 -12   7  14  105.36   70.25
 -11   7  14  404.00   40.24
 -10   7  14 1129.26   62.81
  -9   7  14  850.13  160.30
  -8   7  14  844.04   43.31
  -7   7  14 3630.61  136.09
  -6   7  14 1858.43   54.23
  -5   7  14 3553.04   70.52
  -4   7  14   79.67   22.43
  -3   7  14 3008.34   78.26
  -2   7  14  152.98   27.45
  -1   7  14  648.46   39.96
   0   7  14 1445.05   69.88
   1   7  14 2734.01   64.88
   2   7  14   40.54   36.06
   3   7  14    9.08   34.09
   4   7  14 2754.45  106.85
   5   7  14 1356.85   66.65
   6   7  14  203.63   38.67
   7   7  14  283.68   34.86
   8   7  14  918.68   47.52
   9   7  14  223.53   47.65
 -11   8  14   25.95   29.24
 -10   8  14  211.15   36.28
  -9   8  14  972.48   56.28
  -8   8  14 1119.30   72.29
  -7   8  14  108.84   44.17
  -6   8  14 2222.95  105.50
  -5   8  14 1772.51   65.37
  -4   8  14  296.73   39.56
  -3   8  14 1611.43   70.83
  -2   8  14  121.12   29.93
  -1   8  14  138.75   33.80
   0   8  14   59.75   61.98
   1   8  14  493.86   52.64
   2   8  14    5.96   41.34
   3   8  14 1168.53   49.29
   4   8  14   11.02   48.36
   5   8  14    0.25   47.15
   6   8  14  800.54   46.36
   7   8  14  238.12   33.49
   8   8  14  134.49   29.97
 -11   9  14   51.65   45.10
 -10   9  14   61.12   28.13
  -9   9  14  562.94   46.14
  -8   9  14   11.53   39.74
  -7   9  14  925.12   53.43
  -6   9  14  918.21   66.31
  -5   9  14  669.62   51.23
  -4   9  14    0.00   44.73
  -3   9  14   28.09   35.77
  -2   9  14 1025.86   46.42
  -1   9  14   95.08   39.15
   0   9  14    0.06   57.99
   1   9  14  289.43   44.56
   2   9  14  181.06   45.61
   3   9  14  316.44   44.10
   4   9  14  134.81   44.93
   5   9  14  625.12   44.48
   6   9  14   56.01   34.48
   7   9  14  277.26   28.53
   8   9  14   57.66   30.05
 -11  10  14   38.29   49.34
 -10  10  14  340.72   40.29
  -9  10  14   19.51   28.77
  -8  10  14  114.05   35.22
  -7  10  14  261.58   75.46
  -6  10  14  253.50   43.60
  -5  10  14   89.85   39.58
  -4  10  14  158.13   46.42
  -3  10  14  235.32   39.43
  -2  10  14  432.98   41.07
  -1  10  14   18.95   38.11
   0  10  14   47.92   60.23
   1  10  14  168.69   44.37
   2  10  14  309.03   43.17
   3  10  14   77.31   46.17
   4  10  14   87.70   43.82
   5  10  14    0.00   37.30
   6  10  14  222.70   39.06
   7  10  14    0.00   27.81
 -10  11  14    0.08   29.28
  -9  11  14   44.73   27.49
  -8  11  14  784.83   40.74
  -7  11  14  160.53   32.24
  -6  11  14  140.30   42.67
  -5  11  14  813.62  108.25
  -4  11  14  648.06   44.01
  -3  11  14  441.90   53.05
  -2  11  14   69.10   39.01
  -1  11  14   82.31   44.48
   0  11  14  447.07   57.20
   1  11  14  572.67   54.26
   2  11  14   61.60   54.95
   3  11  14  155.20   45.32
   4  11  14  293.07   42.63
   5  11  14  108.30   36.13
   6  11  14   49.37   32.92
   7  11  14   21.95   32.50
 -10  12  14    2.99   41.92
  -9  12  14  827.79   43.81
  -8  12  14  142.04   32.42
  -7  12  14  710.70   47.35
  -6  12  14   53.46   35.85
  -5  12  14  185.07   45.97
  -4  12  14 1097.94   90.65
  -3  12  14  352.09   39.38
  -2  12  14  600.41   52.95
  -1  12  14  157.40   43.63
   0  12  14  296.53   54.13
   1  12  14   78.99   72.79
   2  12  14 1854.19  161.51
   3  12  14  772.24   55.33
   4  12  14   62.95   40.11
   5  12  14  147.66   36.14
   6  12  14   35.78   31.56
  -9  13  14   49.10   27.91
  -8  13  14  670.82   41.65
  -7  13  14  413.90   36.96
  -6  13  14    8.21   32.12
  -5  13  14  527.65   59.10
  -4  13  14  798.51   72.25
  -3  13  14 1270.42   61.56
  -2  13  14   98.99   45.97
  -1  13  14  174.45   45.58
   0  13  14 1221.60   81.63
   1  13  14 1603.07   92.75
   2  13  14   89.50   56.45
   3  13  14  717.18   46.71
   4  13  14  554.52   43.99
   5  13  14   37.07   33.87
   6  13  14  163.15   67.31
  -8  14  14  182.81   39.06
  -7  14  14   68.26   28.51
  -6  14  14  148.88   35.99
  -5  14  14 1897.82  163.39
  -4  14  14 1799.61  200.88
  -3  14  14   33.12   38.75
  -2  14  14 1391.50   88.48
  -1  14  14  236.52   47.01
   0  14  14  100.40   48.46
   1  14  14  324.47   51.97
   2  14  14 2177.12  141.80
   3  14  14  802.52   73.13
   4  14  14   56.51   34.10
   5  14  14  652.21   95.89
  -7  15  14  515.54   90.24
  -6  15  14  302.68   36.33
  -5  15  14  595.45   46.44
  -4  15  14  927.08   85.10
  -3  15  14 2737.87  241.64
  -2  15  14  117.72   37.77
  -1  15  14  316.75   35.55
   0  15  14 1215.18   73.99
   1  15  14 1923.04   78.30
   2  15  14   82.78   40.57
   3  15  14  815.20   73.89
   4  15  14  856.02   47.75
  -6  16  14  244.19   46.19
  -5  16  14 1311.38   96.17
  -4  16  14 1861.59   81.95
  -3  16  14   67.21   31.77
  -2  16  14 1714.18   58.63
  -1  16  14 1262.37   53.23
   0  16  14  176.05   36.55
   1  16  14  172.56   44.84
   2  16  14 1536.59  132.52
   3  16  14  939.87   58.41
  -4  17  14  658.64   60.46
  -3  17  14 1978.02  187.97
  -2  17  14  259.42   73.85
  -1  17  14  578.49   99.12
   0  17  14  908.92   59.02
   1  17  14  874.39   67.41
 -12   1  15  269.89   20.52
 -11   1  15   64.01   29.54
 -10   1  15   58.10   43.93
  -9   1  15   52.29   40.82
  -8   1  15  107.86   38.36
  -7   1  15  403.68   34.04
  -6   1  15   25.49   26.24
  -5   1  15  452.27   29.97
  -4   1  15 1313.88   40.38
  -3   1  15  387.36   21.86
  -2   1  15  112.33   20.81
  -1   1  15  477.42   22.74
   0   1  15   46.60   17.57
   1   1  15  277.91   19.83
   2   1  15    0.77   22.29
   3   1  15  780.42   33.53
   4   1  15 1187.75   41.11
   5   1  15  195.09   30.24
   6   1  15   19.40   40.41
   7   1  15    0.54   28.96
   8   1  15   60.08   28.19
   9   1  15  346.70   38.17
 -12   2  15   19.26   17.75
 -11   2  15  503.29   35.84
 -10   2  15  104.55   31.91
  -9   2  15   58.99   47.50
  -8   2  15   44.32   41.84
  -7   2  15 2178.87   64.35
  -6   2  15 1446.89   44.17
  -5   2  15  389.17   29.10
  -4   2  15  554.78   26.13
  -3   2  15 2236.73   38.25
  -2   2  15 2092.22   43.03
  -1   2  15  480.96   24.00
   0   2  15 1504.28   35.31
   1   2  15  629.95   28.60
   2   2  15   34.97   23.37
   3   2  15    9.55   25.20
   4   2  15  410.66   33.53
   5   2  15 1903.77   60.15
   6   2  15   93.68   36.21
   7   2  15   80.45   28.66
   8   2  15  250.68   36.61
   9   2  15  109.22   39.44
 -12   3  15 1167.41   34.72
 -11   3  15   38.44   25.34
 -10   3  15   71.24   31.68
  -9   3  15 1936.37   63.48
  -8   3  15 1760.85   61.95
  -7   3  15  373.64   32.55
  -6   3  15  481.97   32.38
  -5   3  15 5381.80   94.25
  -4   3  15 2008.62   43.62
  -3   3  15  392.11   22.92
  -2   3  15  394.87   26.26
  -1   3  15 2677.19   51.69
   0   3  15  764.08   27.89
   1   3  15 1877.14   39.43
   2   3  15 2671.24   51.79
   3   3  15  669.01   32.06
   4   3  15  345.88   32.93
   5   3  15    0.09   36.70
   6   3  15  991.95   90.19
   7   3  15  525.73   41.60
   8   3  15  208.31   36.54
   9   3  15   77.94   29.40
 -12   4  15  130.12   29.91
 -11   4  15 1193.87   65.97
 -10   4  15  586.37   32.31
  -9   4  15   31.86   41.35
  -8   4  15  248.93   35.01
  -7   4  15 3483.18   69.46
  -6   4  15 9940.29  187.10
  -5   4  15  233.66   25.96
  -4   4  15  861.50   31.74
  -3   4  15 5711.22   85.27
  -2   4  15 4015.57   73.90
  -1   4  15   26.09   23.97
   0   4  15 5279.16   81.64
   1   4  15 9073.95  133.95
   2   4  15  276.37   27.85
   3   4  15   85.31   26.12
   4   4  15 2307.89   61.08
   5   4  15 1913.05  113.84
   6   4  15  346.65   69.43
   7   4  15  783.90   45.49
   8   4  15 1027.69   43.86
   9   4  15  204.22   31.72
 -12   5  15 2477.71  161.95
 -11   5  15  278.65   24.19
 -10   5  15  378.03   28.83
  -9   5  15 1352.25   68.48
  -8   5  15 3336.21   69.93
  -7   5  15 2909.15   73.20
  -6   5  15  528.60   32.68
  -5   5  15 10577.0   146.2
  -4   5  15 2299.31   44.63
  -3   5  15  864.01   32.65
  -2   5  15 1794.01   67.99
  -1   5  15 10716.7   275.1
   0   5  15 5440.32  134.19
   1   5  15 1045.08   37.00
   2   5  15 4217.23   82.41
   3   5  15 4016.60   82.56
   4   5  15   64.64   35.30
   5   5  15  626.36   53.24
   6   5  15 2422.42   73.54
   7   5  15 2001.59   67.18
   8   5  15   11.32   26.07
   9   5  15  262.36  104.05
 -12   6  15   19.80   36.09
 -11   6  15 2640.74   88.49
 -10   6  15 1963.95   61.13
  -9   6  15  451.67   35.69
  -8   6  15  116.68   30.11
  -7   6  15 5838.84  147.39
  -6   6  15 9457.81  141.67
  -5   6  15  198.58   27.50
  -4   6  15 1541.60   38.57
  -3   6  15 5691.87  139.94
  -2   6  15 5832.19  179.61
  -1   6  15  363.82   29.75
   0   6  15 7474.39  400.59
   1   6  15 16000.0   300.9
   2   6  15  305.87   32.13
   3   6  15  887.48   39.38
   4   6  15 2999.42   85.93
   5   6  15 2379.09   95.82
   6   6  15  969.31   48.40
   7   6  15  838.41   51.78
   8   6  15 1398.32   60.65
 -11   7  15  421.65   37.57
 -10   7  15  389.68   41.84
  -9   7  15 3873.21  141.15
  -8   7  15 5236.42  116.00
  -7   7  15 2017.28   61.09
  -6   7  15  417.81   30.56
  -5   7  15 9596.79  141.91
  -4   7  15 1720.85   60.11
  -3   7  15  272.18   30.31
  -2   7  15 2818.71  116.06
  -1   7  15 8816.82  170.19
   0   7  15 8523.59  163.56
   1   7  15 2719.84   68.12
   2   7  15 6125.24  121.87
   3   7  15 1400.25   64.21
   4   7  15  935.99   65.90
   5   7  15  439.16   47.31
   6   7  15 3318.28   84.78
   7   7  15 1248.77   57.23
   8   7  15   31.56   26.49
 -11   8  15 2187.80   97.85
 -10   8  15 1555.68   69.66
  -9   8  15  647.18   43.82
  -8   8  15   15.32   47.74
  -7   8  15 4741.06  122.75
  -6   8  15 5662.73  134.26
  -5   8  15 1395.12   60.05
  -4   8  15 3934.25  110.87
  -3   8  15 7224.14  190.59
  -2   8  15 4717.96  118.80
  -1   8  15  239.64   47.05
   0   8  15 9939.91  228.81
   1   8  15 11066.3   269.6
   2   8  15  683.38   52.08
   3   8  15  571.64   50.84
   4   8  15 3068.40   95.34
   5   8  15 5610.49  124.54
   6   8  15  298.31   34.73
   7   8  15  856.95   50.15
   8   8  15 1257.93   69.93
 -11   9  15  839.21   45.96
 -10   9  15  531.23   37.16
  -9   9  15 1587.87   74.04
  -8   9  15 3921.30  124.85
  -7   9  15 2904.82  152.10
  -6   9  15  599.50   48.69
  -5   9  15 6061.84  317.26
  -4   9  15 4601.53  138.31
  -3   9  15  534.03   44.45
  -2   9  15 3109.91   93.54
  -1   9  15 12646.8   360.9
   0   9  15 4518.23  131.84
   1   9  15 1967.31  102.78
   2   9  15 6424.81  372.62
   3   9  15 3724.69  104.38
   4   9  15 1322.43   67.62
   5   9  15  671.77   60.63
   6   9  15 3125.59   89.97
   7   9  15 1269.78   55.21
 -10  10  15 2072.22   62.59
  -9  10  15  231.57   35.42
  -8  10  15  137.08   31.26
  -7  10  15 4540.21  204.30
  -6  10  15 7403.11  325.92
  -5  10  15  726.69   54.35
  -4  10  15 1710.76   76.79
  -3  10  15 3592.59  116.47
  -2  10  15 7199.13  293.79
  -1  10  15  182.07   57.84
   0  10  15 10740.8   316.1
   1  10  15 6418.37  164.97
   2  10  15 1730.13   97.04
   3  10  15  465.13   44.52
   4  10  15 2847.56  134.12
   5  10  15 2342.80   70.88
   6  10  15  377.16   36.75
   7  10  15  544.32   41.52
 -10  11  15  334.05   32.67
  -9  11  15 1086.35   51.61
  -8  11  15 3046.38  108.77
  -7  11  15  805.66   50.31
  -6  11  15  938.59   76.08
  -5  11  15 6886.90 1031.71
  -4  11  15 5334.69  246.89
  -3  11  15  244.65   39.18
  -2  11  15 3332.59   98.24
  -1  11  15 6688.71  191.93
   0  11  15 1008.67   58.94
   1  11  15  870.80   88.14
   2  11  15 3591.76  227.52
   3  11  15 2478.78  122.87
   4  11  15  274.98   42.57
   5  11  15  221.59   40.62
   6  11  15 1481.99   68.83
  -9  12  15  542.87   41.97
  -8  12  15   99.94   32.40
  -7  12  15 2156.74   88.58
  -6  12  15 3425.58  143.41
  -5  12  15 1185.42   88.51
  -4  12  15  969.33   93.05
  -3  12  15 4695.68  164.64
  -2  12  15 2805.79  208.20
  -1  12  15   84.34   72.68
   0  12  15 3366.75  208.96
   1  12  15 6183.94  198.36
   2  12  15  608.10   73.32
   3  12  15  366.88   40.50
   4  12  15 1239.19   58.96
   5  12  15 1568.41   77.76
   6  12  15  232.63   43.68
  -8  13  15 2236.39   82.07
  -7  13  15  280.50   44.49
  -6  13  15  346.40   35.48
  -5  13  15 2020.51  155.58
  -4  13  15 3457.98  295.59
  -3  13  15  424.04   61.00
  -2  13  15 1936.28   70.00
  -1  13  15 2885.73   94.13
   0  13  15 3312.31  231.72
   1  13  15  126.50   45.91
   2  13  15 2979.71   86.37
   3  13  15 1111.57   56.84
   4  13  15   61.65   30.69
   5  13  15  132.06   37.30
  -8  14  15   44.74   31.07
  -7  14  15 1273.55   77.64
  -6  14  15 1378.90   80.93
  -5  14  15  407.45   41.59
  -4  14  15  473.73   40.00
  -3  14  15 1878.39  109.02
  -2  14  15 1831.29   81.37
  -1  14  15   76.69   33.70
   0  14  15 1484.60   68.96
   1  14  15 2024.09   89.60
   2  14  15  591.77   82.36
   3  14  15  418.17   36.83
   4  14  15  797.34   46.69
  -7  15  15  161.72   41.46
  -6  15  15   48.74   34.01
  -5  15  15 1189.39   62.61
  -4  15  15  809.66   68.71
  -3  15  15  133.44   36.05
  -2  15  15 1664.48   53.67
  -1  15  15 1702.08   69.45
   0  15  15  695.48   50.08
   1  15  15   58.58   32.00
   2  15  15  696.63   52.47
   3  15  15  418.25   48.41
  -5  16  15  489.40   58.33
  -4  16  15   21.56   30.06
  -3  16  15 1301.38   51.41
  -2  16  15  893.17   60.40
  -1  16  15   45.27   37.61
   0  16  15  550.66   38.29
   1  16  15  689.02   55.47
   2  16  15   92.98   50.94
  -2  17  15  456.54   81.58
  -1  17  15  719.92   90.05
 -12   0  16 2755.60   92.07
 -11   0  16 5656.37  149.07
 -10   0  16  409.98   50.93
  -9   0  16 4656.56  196.17
  -8   0  16 16892.4   440.9
  -7   0  16  320.21   51.32
  -6   0  16 4205.74  125.85
  -5   0  16 8054.23  204.46
  -4   0  16 12759.7   333.7
  -3   0  16 3675.21   97.83
  -2   0  16  612.42   36.03
  -1   0  16 15048.0   287.9
   0   0  16 1764.26   49.92
   1   0  16 1772.78   51.62
   2   0  16 1617.65   59.74
   3   0  16 28838.8   539.9
   4   0  16 6614.88  182.71
   5   0  16 1657.61  103.50
   6   0  16  655.14   65.33
   7   0  16 2604.24  120.84
   8   0  16 1238.54   74.91
   9   0  16  466.00   73.08
 -12   1  16  753.35   23.37
 -11   1  16  668.66   37.89
 -10   1  16 9524.07  175.08
  -9   1  16 7963.49  203.30
  -8   1  16  605.06   47.88
  -7   1  16 8321.78  141.75
  -6   1  16 8879.10  148.05
  -5   1  16 3291.66   88.16
  -4   1  16 1138.23   33.58
  -3   1  16 10715.6   134.0
  -2   1  16 22010.5   332.4
  -1   1  16 2475.24   42.80
   0   1  16  175.64   20.75
   1   1  16 10072.0   127.9
   2   1  16 13958.5   174.9
   3   1  16  513.96   33.89
   4   1  16 9219.86  154.70
   5   1  16 6938.01  140.41
   6   1  16  838.36   60.22
   7   1  16    0.01   32.00
   8   1  16 2252.73   87.01
   9   1  16  887.38   63.39
 -12   2  16 2111.73   45.39
 -11   2  16 5629.92  103.80
 -10   2  16   77.40   30.73
  -9   2  16 2181.85  125.73
  -8   2  16 10890.4   249.6
  -7   2  16 2648.76   68.39
  -6   2  16 1828.08   48.96
  -5   2  16 4641.62   78.73
  -4   2  16 12120.3   150.2
  -3   2  16 5397.70   77.24
  -2   2  16 2129.06   49.79
  -1   2  16 11676.2   139.0
   0   2  16 4817.53   70.12
   1   2  16 5940.41   83.63
   2   2  16 4753.00   78.39
   3   2  16 13753.2   188.4
   4   2  16 4247.58  102.83
   5   2  16  148.95   36.35
   6   2  16 2773.73   74.84
   7   2  16 4364.44  121.93
   8   2  16  338.98   42.62
 -12   3  16 1256.53   39.98
 -11   3  16  363.74   28.05
 -10   3  16 7765.61  131.20
  -9   3  16 5211.42  147.68
  -8   3  16   26.01   29.31
  -7   3  16 7255.25  146.24
  -6   3  16 7662.74  120.29
  -5   3  16 3993.92   69.89
  -4   3  16 1055.95   33.11
  -3   3  16 4649.09   77.09
  -2   3  16 15264.3   189.3
  -1   3  16 1160.22   34.06
   0   3  16 1476.17   37.91
   1   3  16 6390.60   97.61
   2   3  16 10770.9   146.6
   3   3  16  847.32   40.99
   4   3  16 4090.19   93.64
   5   3  16 9261.80  203.82
   6   3  16  561.82   44.36
   7   3  16  463.95   37.37
   8   3  16  924.76   54.33
 -12   4  16 1727.76   67.38
 -11   4  16 3074.41  105.07
 -10   4  16  255.31   27.77
  -9   4  16 2524.72   81.44
  -8   4  16 12274.8   182.5
  -7   4  16 1220.03   47.63
  -6   4  16 1809.40   46.54
  -5   4  16 1339.24   40.74
  -4   4  16 6779.98   98.35
  -3   4  16  839.38   35.26
  -2   4  16 4027.07   85.97
  -1   4  16 5284.77  100.43
   0   4  16 2691.77   57.18
   1   4  16 3196.17   59.32
   2   4  16 1961.31   46.81
   3   4  16 5137.28   92.02
   4   4  16 4651.75  110.29
   5   4  16  593.12   56.33
   6   4  16 2963.22   86.75
   7   4  16 1947.59   63.77
   8   4  16  197.35   30.10
 -12   5  16  521.77   48.04
 -11   5  16  316.89   26.00
 -10   5  16 4395.94   82.57
  -9   5  16 3706.63   81.61
  -8   5  16  117.24   31.46
  -7   5  16 1344.87   46.18
  -6   5  16 3304.18   64.89
  -5   5  16 2317.20   51.63
  -4   5  16 1924.46   42.01
  -3   5  16 3172.90   89.23
  -2   5  16 5811.61  144.08
  -1   5  16 1670.75   53.53
   0   5  16   85.54   29.95
   1   5  16 4547.65  107.79
   2   5  16 4762.72   87.21
   3   5  16  362.65   36.29
   4   5  16 2400.92  104.95
   5   5  16 3569.88  158.52
   6   5  16  777.80   47.47
   7   5  16  323.70   33.87
   8   5  16 1089.45  137.32
 -11   6  16 1606.81   47.53
 -10   6  16   22.43   28.13
  -9   6  16  817.93   36.31
  -8   6  16 3726.21  103.37
  -7   6  16 1174.70   40.78
  -6   6  16  517.06   33.80
  -5   6  16  970.34   39.45
  -4   6  16 2141.26   65.90
  -3   6  16  857.75   35.98
  -2   6  16  258.01   29.42
  -1   6  16  818.56   34.41
   0   6  16 1779.18   60.44
   1   6  16 1164.45   43.93
   2   6  16 1374.87   48.59
   3   6  16 3561.74   96.16
   4   6  16 2300.77  121.33
   5   6  16   59.81   31.93
   6   6  16  583.73   43.10
   7   6  16  966.44   50.50
   8   6  16   17.54   36.86
 -11   7  16  153.16   35.12
 -10   7  16 1384.92   56.67
  -9   7  16 1750.33   86.08
  -8   7  16  139.78  138.67
  -7   7  16  477.16   37.08
  -6   7  16 3103.41   76.39
  -5   7  16   65.43   39.47
  -4   7  16 1101.25   53.58
  -3   7  16   58.21   27.29
  -2   7  16 2784.26   70.04
  -1   7  16  963.20   49.34
   0   7  16   93.57   29.62
   1   7  16  998.77   43.09
   2   7  16 1700.51   85.77
   3   7  16  961.18   58.75
   4   7  16 2958.57  101.25
   5   7  16  508.49   40.32
   6   7  16  112.28   33.79
   7   7  16   10.38   30.91
   8   7  16  630.26   47.46
 -11   8  16  696.30   44.97
 -10   8  16   40.40   33.93
  -9   8  16  375.16   40.78
  -8   8  16 1477.16   59.91
  -7   8  16  159.48   69.33
  -6   8  16 1184.66   56.98
  -5   8  16  993.34   72.25
  -4   8  16  343.10   43.48
  -3   8  16  232.83   33.83
  -2   8  16   44.25   31.46
  -1   8  16  194.76   47.15
   0   8  16  416.45   42.79
   1   8  16  419.23   74.49
   2   8  16 1061.50   53.35
   3   8  16  612.69   55.01
   4   8  16  474.16   41.00
   5   8  16   32.69   39.06
   6   8  16  131.79   47.39
   7   8  16  200.59   31.41
 -10   9  16    9.42   26.82
  -9   9  16   61.10   37.89
  -8   9  16  130.21   40.06
  -7   9  16  401.94   52.13
  -6   9  16  413.98   49.89
  -5   9  16   76.65   50.57
  -4   9  16  215.38   46.58
  -3   9  16   18.63   45.62
  -2   9  16   96.86   36.17
  -1   9  16  571.88   57.40
   0   9  16  232.49   50.47
   1   9  16  776.25   61.03
   2   9  16  285.40   37.55
   3   9  16   58.66   60.20
   4   9  16  100.53   36.99
   5   9  16  191.64   38.56
   6   9  16  424.40   42.12
   7   9  16  168.55   32.09
 -10  10  16   64.62   29.48
  -9  10  16    7.45   30.20
  -8  10  16   14.17   31.07
  -7  10  16   67.80   37.26
  -6  10  16  406.82   50.62
  -5  10  16  142.22   82.50
  -4  10  16  256.34   40.68
  -3  10  16  143.26   35.84
  -2  10  16  804.77   83.20
  -1  10  16  287.18   44.39
   0  10  16  130.56   42.12
   1  10  16   67.89   67.23
   2  10  16   73.61   52.67
   3  10  16   76.47   38.39
   4  10  16  555.95   47.26
   5  10  16    0.00   36.48
   6  10  16   96.42   38.23
  -9  11  16   92.67   27.94
  -8  11  16   41.92   32.81
  -7  11  16  195.49   36.10
  -6  11  16   70.65   32.10
  -5  11  16  337.02   41.19
  -4  11  16  141.97   62.29
  -3  11  16  805.35   66.05
  -2  11  16  264.65   66.91
  -1  11  16  236.10   54.25
   0  11  16  254.48   75.44
   1  11  16   84.15   55.71
   2  11  16  203.74   46.14
   3  11  16   49.35   37.43
   4  11  16   18.88   31.89
   5  11  16   99.85   33.36
   6  11  16    0.00   39.47
  -9  12  16   14.42   35.44
  -8  12  16   50.82   28.50
  -7  12  16  157.56   32.26
  -6  12  16   15.60   32.90
  -5  12  16   41.86   29.89
  -4  12  16  418.69   39.33
  -3  12  16 1093.59   90.30
  -2  12  16  549.35   52.01
  -1  12  16 1032.20   65.39
   0  12  16  333.32   47.88
   1  12  16   74.23   47.91
   2  12  16   39.03   40.50
   3  12  16  783.99   54.20
   4  12  16   14.23   30.98
   5  12  16   71.10   38.10
  -8  13  16  126.81   29.09
  -7  13  16  368.28   59.00
  -6  13  16  238.08   31.90
  -5  13  16  146.75   32.81
  -4  13  16   72.96   34.33
  -3  13  16 1162.35   80.01
  -2  13  16 1769.18   68.74
  -1  13  16    6.64   41.83
   0  13  16  796.42   83.05
   1  13  16   33.88   40.12
   2  13  16  820.99   46.48
   3  13  16   64.83   36.94
   4  13  16  408.24   47.29
  -7  14  16  172.46   37.66
  -6  14  16   98.86   31.35
  -5  14  16  308.79   38.91
  -4  14  16 1392.74   56.44
  -3  14  16  780.85   55.38
  -2  14  16  936.18   62.06
  -1  14  16 1746.07  121.60
   0  14  16  323.37   43.07
   1  14  16   36.58   33.53
   2  14  16  132.63   34.70
   3  14  16  978.44   70.19
   4  14  16  136.57   60.45
  -6  15  16  403.36   41.49
  -5  15  16  437.27   59.19
  -4  15  16   33.92   28.75
  -3  15  16 2501.99   95.42
  -2  15  16 2357.53   91.73
  -1  15  16   30.14   39.04
   0  15  16  734.70   43.10
   1  15  16  424.81   37.39
   2  15  16  906.25   54.95
  -4  16  16 1781.92  123.16
  -3  16  16  759.03  164.93
  -2  16  16  850.29   52.07
  -1  16  16 1525.55  107.11
   0  16  16  523.98   86.17
   1  16  16   60.85   61.66
 -12   1  17  185.94   21.86
 -11   1  17   40.67   22.02
 -10   1  17   48.43   28.55
  -9   1  17  481.76   46.73
  -8   1  17   34.46   29.51
  -7   1  17 1856.28   60.38
  -6   1  17  291.15   30.22
  -5   1  17 1399.73   40.13
  -4   1  17  243.66   23.95
  -3   1  17 3488.36   61.62
  -2   1  17 1496.26   33.87
  -1   1  17 3382.50   54.20
   0   1  17   22.88   19.91
   1   1  17  187.26   23.76
   2   1  17  216.37   26.58
   3   1  17 1172.41   40.35
   4   1  17  724.32   48.08
   5   1  17  204.65   37.17
   6   1  17  200.87   38.08
   7   1  17   56.06   36.23
   8   1  17  285.00   46.84
 -12   2  17  108.38   22.46
 -11   2  17  173.95   22.97
 -10   2  17  355.18   31.18
  -9   2  17  349.49   36.13
  -8   2  17 1334.23   53.08
  -7   2  17  128.94   31.95
  -6   2  17 2077.16   49.23
  -5   2  17  677.44   31.72
  -4   2  17   70.03   21.69
  -3   2  17  140.68   27.95
  -2   2  17 3267.55   54.74
  -1   2  17  227.62   22.10
   0   2  17 1614.64   34.72
   1   2  17  133.15   25.37
   2   2  17 2402.59   53.17
   3   2  17  439.27   46.51
   4   2  17  538.02   45.50
   5   2  17  256.35   43.41
   6   2  17  403.13   51.90
   7   2  17  149.17   39.81
   8   2  17  444.69   49.22
 -12   3  17  476.24   35.20
 -11   3  17 1119.70   34.05
 -10   3  17   10.01   26.14
  -9   3  17  143.74   28.69
  -8   3  17  389.70   35.59
  -7   3  17 2350.19   61.05
  -6   3  17   76.67   23.99
  -5   3  17 3100.31   57.71
  -4   3  17 4657.69   73.99
  -3   3  17 3211.62   72.65
  -2   3  17  354.81   28.96
  -1   3  17  406.57   26.58
   0   3  17 1567.89   40.07
   1   3  17 1694.48   44.95
   2   3  17  657.27   34.41
   3   3  17 1184.12   48.14
   4   3  17  706.86   48.77
   5   3  17  467.70   63.68
   6   3  17  109.00   30.96
   7   3  17 1865.26   78.75
   8   3  17  187.60   39.16
 -12   4  17  379.52   53.38
 -11   4  17  323.04   22.60
 -10   4  17 1791.31   61.81
  -9   4  17  993.45   37.73
  -8   4  17  226.60   47.35
  -7   4  17   26.09   26.25
  -6   4  17 7805.01  110.67
  -5   4  17 3730.81   65.54
  -4   4  17  291.05   25.59
  -3   4  17  481.94   31.71
  -2   4  17 1467.11   46.40
  -1   4  17 2661.37   58.03
   0   4  17  670.35   39.23
   1   4  17 6017.29  116.67
   2   4  17 1552.21   46.39
   3   4  17  292.47   37.53
   4   4  17  190.17   41.58
   5   4  17 1414.19   54.88
   6   4  17 1781.74   68.62
   7   4  17  163.80   38.81
   8   4  17  262.45   60.97
 -11   5  17 1889.41   56.66
 -10   5  17   80.22   22.04
  -9   5  17  750.85   33.57
  -8   5  17  645.86   50.27
  -7   5  17 4023.96   75.56
  -6   5  17 1023.92   41.31
  -5   5  17 5436.29   84.33
  -4   5  17 7219.38  123.52
  -3   5  17 2340.44   62.89
  -2   5  17  268.15   30.27
  -1   5  17 1455.64   48.51
   0   5  17 12021.7   205.1
   1   5  17 1152.33   46.74
   2   5  17  628.92   39.72
   3   5  17  904.72   47.56
   4   5  17 1244.85   78.79
   5   5  17  446.47   39.56
   6   5  17  462.29   42.11
   7   5  17 1821.38   71.85
   8   5  17  668.35   74.23
 -11   6  17  370.54   49.59
 -10   6  17 2835.53   65.86
  -9   6  17 3849.60   71.70
  -8   6  17  523.86   34.24
  -7   6  17   14.04   27.84
  -6   6  17 6478.23  135.33
  -5   6  17 9131.67  250.06
  -4   6  17   41.46   26.61
  -3   6  17 5707.10  171.95
  -2   6  17 2841.94   96.43
  -1   6  17 2435.03   72.01
   0   6  17   31.62   30.08
   1   6  17 9174.77  182.59
   2   6  17 3945.48  103.74
   3   6  17    8.34   42.22
   4   6  17   99.65   39.90
   5   6  17 1504.06   64.31
   6   6  17 3434.95  115.16
   7   6  17   11.75   35.74
 -11   7  17 3190.32  124.93
 -10   7  17  329.59   37.05
  -9   7  17  994.21   52.03
  -8   7  17 1351.46  105.95
  -7   7  17 6787.57  250.31
  -6   7  17 1174.74   55.96
  -5   7  17 6627.95  210.50
  -4   7  17 8665.22  305.62
  -3   7  17 5135.08  150.64
  -2   7  17  275.08   35.26
  -1   7  17 3568.79   96.27
   0   7  17 9216.83  191.16
   1   7  17 1557.34   58.95
   2   7  17  842.63   64.04
   3   7  17 2498.05  130.20
   4   7  17 1623.83  106.19
   5   7  17  539.24   98.84
   6   7  17  330.32   55.81
   7   7  17 2832.98   85.63
 -10   8  17 2602.77   82.62
  -9   8  17 2303.40  108.63
  -8   8  17 4270.99  148.99
  -7   8  17  461.74   44.98
  -6   8  17 7641.88  235.62
  -5   8  17 4446.15  133.29
  -4   8  17  134.18   38.15
  -3   8  17 1499.36   64.63
  -2   8  17 9895.72  225.49
  -1   8  17 3683.51  127.66
   0   8  17 1218.73   73.45
   1   8  17 4273.33  260.59
   2   8  17 6360.16  242.28
   3   8  17  222.93   52.21
   4   8  17  417.72   36.39
   5   8  17 1112.81  103.80
   6   8  17 1917.72   69.69
   7   8  17  154.30   35.61
 -10   9  17  251.65   41.80
  -9   9  17  237.61   33.38
  -8   9  17 1278.45   81.02
  -7   9  17 7002.80  229.15
  -6   9  17  496.24   74.34
  -5   9  17 4919.72  334.49
  -4   9  17 5801.61  170.21
  -3   9  17 4764.30  123.05
  -2   9  17  650.54   52.18
  -1   9  17 6117.26  147.60
   0   9  17 4799.37  182.75
   1   9  17 1447.27   83.55
   2   9  17   10.07   58.44
   3   9  17 2548.77   86.87
   4   9  17 2369.15  115.11
   5   9  17  275.45   40.85
   6   9  17  253.18   39.89
 -10  10  17 2092.58  117.98
  -9  10  17 1916.83   82.79
  -8  10  17 2085.69   84.83
  -7  10  17  817.43   48.26
  -6  10  17 5543.28  213.24
  -5  10  17 4499.98  118.18
  -4  10  17    0.00   57.46
  -3  10  17 3601.06  143.41
  -2  10  17 4956.89  356.76
  -1  10  17 1441.03   76.81
   0  10  17  129.51   87.19
   1  10  17 3334.46  148.09
   2  10  17 4578.47  110.35
   3  10  17  265.49   33.51
   4  10  17    0.79   42.09
   5  10  17 2017.31   84.33
   6  10  17 1696.23  173.69
  -9  11  17  302.18   40.99
  -8  11  17 1425.40   58.60
  -7  11  17 4403.30  207.63
  -6  11  17  463.59   36.96
  -5  11  17 3690.53   94.38
  -4  11  17 6048.55  146.17
  -3  11  17 1331.26   58.86
  -2  11  17  136.39   77.86
  -1  11  17 3555.38  111.93
   0  11  17 4648.93  113.21
   1  11  17  777.34   55.58
   2  11  17  176.58   40.99
   3  11  17 1694.46   66.23
   4  11  17 1382.46   77.70
   5  11  17  558.96   49.16
  -8  12  17 1096.90   52.73
  -7  12  17   82.20   30.08
  -6  12  17 4059.23  102.20
  -5  12  17 3846.05   91.89
  -4  12  17   62.36   33.16
  -3  12  17 3210.64  151.16
  -2  12  17 4238.13  127.41
  -1  12  17 2448.94   84.83
   0  12  17  145.56   46.98
   1  12  17 2973.39   86.20
   2  12  17 2236.04   90.91
   3  12  17  224.47   40.57
   4  12  17   84.37   39.53
   5  12  17  953.26   59.97
  -8  13  17  908.33   49.47
  -7  13  17 2567.09   86.10
  -6  13  17  841.05   50.38
  -5  13  17  876.13   50.50
  -4  13  17 3514.67   85.14
  -3  13  17 1769.73   70.40
  -2  13  17   16.86   36.97
  -1  13  17 2551.87   96.66
   0  13  17 1917.19   73.79
   1  13  17  502.38   39.97
   2  13  17   27.49   24.15
   3  13  17 2060.80   82.55
   4  13  17  936.69   51.55
  -6  14  17 1364.11   57.77
  -5  14  17 1598.76   77.32
  -4  14  17  124.07   29.36
  -3  14  17 1604.92   78.46
  -2  14  17 2646.36   89.26
  -1  14  17  560.35   51.09
   0  14  17  184.23   32.22
   1  14  17  789.02   39.32
   2  14  17 1322.36   57.91
   3  14  17  146.79   44.76
  -5  15  17   31.13   32.49
  -4  15  17 1111.96   63.78
  -3  15  17  868.34   55.78
  -2  15  17  255.65   45.17
  -1  15  17  733.32   40.38
   0  15  17  788.01   47.99
   1  15  17  280.17   39.77
 -12   0  18 1940.41  119.30
 -11   0  18 10418.7   234.0
 -10   0  18  179.89   41.14
  -9   0  18  583.51   50.23
  -8   0  18  769.07   66.00
  -7   0  18 13037.5   300.1
  -6   0  18 1066.81   61.96
  -5   0  18 3285.68   84.67
  -4   0  18  255.58   38.44
  -3   0  18 16309.6   307.0
  -2   0  18 13739.2   327.5
  -1   0  18 14920.8   298.9
   0   0  18 7474.23  169.95
   1   0  18 1242.40   58.22
   2   0  18 6290.52  152.20
   3   0  18 7571.21  215.63
   4   0  18 12132.6   662.7
   5   0  18  462.42   97.55
   6   0  18  478.73   89.45
   7   0  18  179.03   70.06
   8   0  18 2173.36  133.95
 -12   1  18 2267.20   73.93
 -11   1  18  139.74   22.74
 -10   1  18 4444.42   86.67
  -9   1  18 6634.61  121.87
  -8   1  18 1922.39   65.30
  -7   1  18  823.65   39.86
  -6   1  18 9231.82  182.21
  -5   1  18 2570.78   58.41
  -4   1  18 7636.84  139.21
  -3   1  18   25.68   25.56
  -2   1  18 14227.3   209.3
  -1   1  18 8755.65  100.73
   0   1  18  820.29   27.74
   1   1  18 4265.29   71.86
   2   1  18 16029.8   249.9
   3   1  18 11397.1   232.9
   4   1  18  954.42   57.41
   5   1  18 2599.82  104.08
   6   1  18 1945.85  108.44
   7   1  18  702.63   63.97
   8   1  18    0.00   50.77
 -12   2  18  556.00   57.23
 -11   2  18 2106.84   48.00
 -10   2  18 4309.86   79.98
  -9   2  18   76.61   27.83
  -8   2  18 9210.65  315.79
  -7   2  18 3800.65   75.02
  -6   2  18 1102.51   42.05
  -5   2  18  741.16   34.30
  -4   2  18 7711.08  116.96
  -3   2  18 14213.8   229.1
  -2   2  18 1613.91   37.58
  -1   2  18 1310.91   33.79
   0   2  18 12212.4   145.2
   1   2  18 13308.3   182.3
   2   2  18    8.21   30.64
   3   2  18 5531.34  128.29
   4   2  18 3677.16  154.13
   5   2  18 2117.03   79.78
   6   2  18  566.40   67.22
   7   2  18 1049.07  129.46
   8   2  18  777.93   74.51
 -11   3  18  170.24   17.34
 -10   3  18 2252.56   51.50
  -9   3  18 6695.19  114.51
  -8   3  18 1859.31   83.42
  -7   3  18 1674.96   42.88
  -6   3  18 3963.40   74.42
  -5   3  18 6500.12   99.31
  -4   3  18 7268.70  129.47
  -3   3  18 1729.01   55.57
  -2   3  18 8253.39  118.15
  -1   3  18 10591.6   147.6
   0   3  18  295.53   28.37
   1   3  18 4555.73   78.89
   2   3  18 12233.2   227.3
   3   3  18 3795.82  128.32
   4   3  18  368.72   95.77
   5   3  18 3395.56   92.09
   6   3  18 2934.26  133.65
   7   3  18   73.10   41.85
 -11   4  18 2414.16   58.54
 -10   4  18 1374.33   41.68
  -9   4  18  111.00   23.73
  -8   4  18 3802.23   81.66
  -7   4  18 5454.06  101.50
  -6   4  18  931.56   37.05
  -5   4  18  265.18   27.06
  -4   4  18 2053.21   55.35
  -3   4  18 9563.74  165.94
  -2   4  18 4769.01   85.06
  -1   4  18 2960.66   59.92
   0   4  18 6489.73  108.01
   1   4  18 6295.63  134.45
   2   4  18  944.85   48.93
   3   4  18 3698.90   94.27
   4   4  18 4286.24  181.56
   5   4  18  927.19   65.39
   6   4  18  301.54   55.55
   7   4  18  675.49  140.90
 -11   5  18   66.54   38.35
 -10   5  18 1544.31   53.31
  -9   5  18 4722.85   86.12
  -8   5  18  135.08   25.59
  -7   5  18 1150.02   51.06
  -6   5  18 3201.33   61.64
  -5   5  18 1892.16   62.89
  -4   5  18 2608.74   62.34
  -3   5  18  478.13   29.25
  -2   5  18 2762.63   67.86
  -1   5  18 7225.17  171.92
   0   5  18 1234.75   44.37
   1   5  18 2813.31   86.90
   2   5  18 4558.88  109.19
   3   5  18 2179.63  100.08
   4   5  18  221.36   43.97
   5   5  18 1330.43   71.13
   6   5  18  741.99   48.84
   7   5  18   90.29   38.27
 -11   6  18 1249.45   84.81
 -10   6  18  530.80   47.31
  -9   6  18  208.42   31.83
  -8   6  18 1613.69   43.07
  -7   6  18  898.20   53.34
  -6   6  18  241.95   35.18
  -5   6  18  257.97   37.31
  -4   6  18 1380.40   85.40
  -3   6  18 2642.06   85.89
  -2   6  18 2022.62   50.93
  -1   6  18  228.61   32.32
   0   6  18 3332.08   81.25
   1   6  18 2575.99   75.43
   2   6  18  583.43   38.02
   3   6  18 2140.23  127.68
   4   6  18 1157.49   77.09
   5   6  18  273.56   37.80
   6   6  18   40.91   31.02
   7   6  18  221.82   37.36
 -10   7  18 1103.95   55.81
  -9   7  18  240.04   35.20
  -8   7  18   93.42   35.30
  -7   7  18  105.60   35.47
  -6   7  18 3686.24  149.41
  -5   7  18  549.24   39.21
  -4   7  18 1237.88   73.24
  -3   7  18   22.09   39.14
  -2   7  18 1715.40   67.62
  -1   7  18 2270.30   64.54
   0   7  18  177.78   34.55
   1   7  18 1032.05   47.81
   2   7  18  722.20  137.88
   3   7  18 2160.20  115.03
   4   7  18  390.43   63.28
   5   7  18  701.26   51.16
   6   7  18   92.74   28.04
 -10   8  18   37.27   51.06
  -9   8  18  213.39   40.76
  -8   8  18   62.24   41.49
  -7   8  18  442.06   45.44
  -6   8  18  358.41   47.16
  -5   8  18  151.26   59.33
  -4   8  18    0.03   29.68
  -3   8  18  801.20   53.40
  -2   8  18  921.31   57.38
  -1   8  18  539.98   43.03
   0   8  18 2615.32   99.52
   1   8  18  710.90   99.84
   2   8  18  394.59   67.66
   3   8  18  990.87   51.76
   4   8  18  625.21   46.01
   5   8  18    6.02   33.98
   6   8  18   36.02   30.52
 -10   9  18   84.83   40.02
  -9   9  18   78.33   32.01
  -8   9  18  107.45   35.22
  -7   9  18   74.68   38.11
  -6   9  18  196.60   35.40
  -5   9  18    0.00   39.14
  -4   9  18  532.19   73.36
  -3   9  18   52.58   98.36
  -2   9  18  168.19   59.94
  -1   9  18  735.70   85.29
   0   9  18  812.99   93.02
   1   9  18  665.89   42.26
   2   9  18  507.79   37.58
   3   9  18   41.66   34.14
   4   9  18  225.85   50.71
   5   9  18    2.49   31.33
   6   9  18   63.56   34.75
  -9  10  18  184.11   50.87
  -8  10  18   55.19   34.23
  -7  10  18  393.45   46.55
  -6  10  18  141.32   35.62
  -5  10  18   67.96   33.19
  -4  10  18    1.97   33.22
  -3  10  18  248.85   57.33
  -2  10  18    0.05   98.67
  -1  10  18  349.92   43.13
   0  10  18  276.13   37.43
   1  10  18  275.12   30.59
   2  10  18  278.80   33.54
   3  10  18   40.30   31.51
   4  10  18   41.36   44.66
   5  10  18   67.75   34.80
  -9  11  18  108.13   36.42
  -8  11  18  674.09   37.38
  -7  11  18   52.06   29.23
  -6  11  18  269.69   30.56
  -5  11  18  108.27   28.75
  -4  11  18   76.73   31.41
  -3  11  18    0.00   42.25
  -2  11  18  795.27   50.89
  -1  11  18    0.00   37.32
   0  11  18  343.97   33.06
   1  11  18    2.60   30.31
   2  11  18   11.84   28.56
   3  11  18  349.91   33.16
   4  11  18   31.05   27.32
   5  11  18   46.53   32.55
  -8  12  18  120.89   29.13
  -7  12  18  664.50   39.35
  -6  12  18  213.59   29.16
  -5  12  18   23.39   28.51
  -4  12  18  397.53   33.33
  -3  12  18 1795.16  129.98
  -2  12  18  171.00   38.20
  -1  12  18  663.78   51.96
   0  12  18    0.19   40.37
   1  12  18    8.23   27.43
   2  12  18  188.50   25.78
   3  12  18   71.73   30.70
   4  12  18   70.26   32.10
  -7  13  18  129.12   40.37
  -6  13  18  170.32   41.60
  -5  13  18  404.96   33.79
  -4  13  18  301.80   31.36
  -3  13  18  123.81   34.36
  -2  13  18 1742.94   61.97
  -1  13  18   73.61   37.88
   0  13  18  102.53   31.09
   1  13  18   19.21   30.43
   2  13  18  453.80   40.03
   3  13  18  249.92   48.77
  -6  14  18   13.02   32.98
  -5  14  18  216.20   32.59
  -4  14  18   92.52   27.94
  -3  14  18 1496.04   57.87
  -2  14  18  267.07   44.35
  -1  14  18 1063.84   42.98
   0  14  18  132.94   26.11
   1  14  18   65.90   38.83
   2  14  18  222.36   65.54
  -4  15  18  136.91   53.71
  -3  15  18   19.60   65.76
  -2  15  18 2111.62   77.40
  -1  15  18  247.95   76.92
   0  15  18  139.33   63.59
 -11   1  19  701.64   26.75
 -10   1  19   33.19   22.04
  -9   1  19   26.11   24.83
  -8   1  19  664.56   39.24
  -7   1  19 1812.98   54.91
  -6   1  19  859.16   34.42
  -5   1  19 2040.00   55.41
  -4   1  19  219.55   25.47
  -3   1  19   16.67   20.80
  -2   1  19 1652.57   34.72
  -1   1  19  629.01   25.12
   0   1  19  339.07   24.83
   1   1  19   87.38   28.79
   2   1  19   40.15   26.08
   3   1  19  245.81   30.44
   4   1  19  211.73   32.48
   5   1  19    1.02   52.84
   6   1  19    0.00   44.76
   7   1  19   34.58   43.74
 -11   2  19  469.81   25.91
 -10   2  19  424.34   26.73
  -9   2  19   46.67   24.50
  -8   2  19 1321.83   45.01
  -7   2  19  808.06   43.10
  -6   2  19 1019.86   36.50
  -5   2  19 1213.31   50.81
  -4   2  19   98.29   24.51
  -3   2  19  238.95   24.02
  -2   2  19  411.28   24.62
  -1   2  19  795.64   28.98
   0   2  19   83.53   22.07
   1   2  19  211.01   31.09
   2   2  19 2143.35   54.77
   3   2  19  852.48   60.34
   4   2  19   57.88   28.71
   5   2  19    0.00   50.17
   6   2  19  162.78   48.49
   7   2  19  155.15   38.70
 -11   3  19  366.46   34.04
 -10   3  19 1051.69   32.37
  -9   3  19  134.19   24.15
  -8   3  19  278.51   27.46
  -7   3  19  646.85   56.79
  -6   3  19 2140.60   46.85
  -5   3  19   74.39   33.56
  -4   3  19 1191.22   47.53
  -3   3  19 1085.27   35.00
  -2   3  19  260.47   25.41
  -1   3  19    0.27   22.66
   0   3  19 1249.86   38.52
   1   3  19 2532.62  104.18
   2   3  19  478.72   31.15
   3   3  19  553.48   89.38
   4   3  19 1014.40   50.12
   5   3  19  465.98   61.96
   6   3  19  368.68   96.31
   7   3  19  433.50   66.34
 -11   4  19  270.91   50.57
 -10   4  19  490.21   25.53
  -9   4  19 1848.30   45.72
  -8   4  19 1809.97   47.85
  -7   4  19  743.26   50.83
  -6   4  19 1042.68   39.45
  -5   4  19 1743.67   55.19
  -4   4  19  351.66   39.11
  -3   4  19  472.42   35.78
  -2   4  19 1509.52   46.34
  -1   4  19 1333.35   47.37
   0   4  19 2904.42   68.82
   1   4  19  476.84   35.87
   2   4  19 1797.07   56.96
   3   4  19 1084.67  114.04
   4   4  19  411.38   38.72
   5   4  19   28.34   43.34
   6   4  19  857.77   64.46
   7   4  19  581.67   49.94
 -11   5  19  986.87   74.07
 -10   5  19 1968.32   79.48
  -9   5  19   80.20   26.24
  -8   5  19  659.81   38.30
  -7   5  19 1280.81   57.29
  -6   5  19 4263.35  124.91
  -5   5  19   17.56   27.94
  -4   5  19 5620.69  134.74
  -3   5  19 2409.17   88.52
  -2   5  19  169.60   35.20
  -1   5  19  247.80   37.40
   0   5  19 3754.44   86.49
   1   5  19 3474.38   73.67
   2   5  19  184.30   47.49
   3   5  19  429.21   47.94
   4   5  19 1121.31   51.91
   5   5  19 1681.78   61.53
   6   5  19  130.62   35.15
 -10   6  19  386.77   43.00
  -9   6  19 4266.80  114.79
  -8   6  19 1732.46   63.95
  -7   6  19 1132.63   50.86
  -6   6  19  141.58   42.03
  -5   6  19 6353.99  136.35
  -4   6  19 3107.59  100.27
  -3   6  19 2544.61   91.63
  -2   6  19 4907.50   92.86
  -1   6  19 2739.57   68.60
   0   6  19 5467.99   98.40
   1   6  19  714.17   48.68
   2   6  19 3639.43  142.72
   3   6  19 1508.73   62.66
   4   6  19  495.44   38.74
   5   6  19   39.44   30.87
   6   6  19 2603.61  115.00
 -10   7  19 2642.52  148.59
  -9   7  19  136.72   39.16
  -8   7  19  140.80   39.24
  -7   7  19 2060.56   90.63
  -6   7  19 6592.36  171.27
  -5   7  19   45.53   45.58
  -4   7  19 4594.02  192.98
  -3   7  19 6649.70  219.04
  -2   7  19 2277.98   93.34
  -1   7  19   54.02   26.15
   0   7  19 4816.93  116.25
   1   7  19 5826.36  292.70
   2   7  19  975.74   56.04
   3   7  19  729.96   43.38
   4   7  19 2783.87  105.00
   5   7  19 1678.31  120.51
   6   7  19  192.85   43.07
 -10   8  19 1059.48   75.66
  -9   8  19 1274.00   71.61
  -8   8  19 4433.10  172.91
  -7   8  19  942.65   82.25
  -6   8  19 3755.88  160.26
  -5   8  19 5801.07  137.10
  -4   8  19  831.65   97.25
  -3   8  19   57.43   61.57
  -2   8  19 4687.16  197.43
  -1   8  19 6506.01  245.03
   0   8  19 1516.16   86.92
   1   8  19   81.78   31.41
   2   8  19 5120.79  117.81
   3   8  19 2905.77   83.58
   4   8  19  157.94   40.06
   5   8  19  138.82   29.67
  -9   9  19   47.92   28.18
  -8   9  19  412.37   41.65
  -7   9  19 4081.99  132.48
  -6   9  19 4670.81  173.10
  -5   9  19  178.84   34.28
  -4   9  19 3923.65  116.17
  -3   9  19 2876.64  152.68
  -2   9  19 1176.45   51.07
  -1   9  19   35.37   33.96
   0   9  19 3477.02   91.99
   1   9  19 5205.43  103.66
   2   9  19  452.85   37.22
   3   9  19  293.35   35.57
   4   9  19 1650.86   64.61
   5   9  19 1557.39  101.63
  -9  10  19 2037.72  114.58
  -8  10  19 2223.40   76.26
  -7  10  19    6.95   27.29
  -6  10  19 1007.60   46.37
  -5  10  19 6409.95  143.68
  -4  10  19 1186.95   53.44
  -3  10  19  548.75   88.40
  -2  10  19 1729.89   87.47
  -1  10  19 2831.80   80.23
   0  10  19 2311.45   64.19
   1  10  19  164.12   28.57
   2  10  19 3366.89   76.99
   3  10  19 1384.21   93.07
   4  10  19  430.34   40.68
  -8  11  19  463.21   37.58
  -7  11  19 3367.15  102.94
  -6  11  19 2170.06  110.10
  -5  11  19   32.49   27.12
  -4  11  19 2272.71   99.31
  -3  11  19 2551.79   97.89
  -2  11  19 1359.49   56.83
  -1  11  19   51.52   36.36
   0  11  19 1975.29   51.98
   1  11  19 2912.83  117.18
   2  11  19  653.30   37.57
   3  11  19  496.44   32.91
   4  11  19 1659.64   83.92
  -7  12  19  219.09   49.01
  -6  12  19 1618.20   62.94
  -5  12  19 3542.70   97.72
  -4  12  19  950.77   46.46
  -3  12  19   63.30   29.93
  -2  12  19 1968.27   60.08
  -1  12  19 2070.05   66.94
   0  12  19  472.06   37.92
   1  12  19   50.63   27.48
   2  12  19 1509.24   58.38
   3  12  19 1613.41  190.00
  -6  13  19 2250.77  126.54
  -5  13  19   57.86   30.26
  -4  13  19 1223.60   62.50
  -3  13  19 2644.37   73.00
  -2  13  19  766.16   41.51
  -1  13  19  200.43   33.05
   0  13  19 1026.82   45.07
   1  13  19  680.10   41.94
   2  13  19  407.31   73.34
  -4  14  19  572.32   73.20
  -3  14  19   59.65   32.50
  -2  14  19  754.91   41.50
  -1  14  19 1330.81   81.70
   0  14  19  146.17   59.28
 -11   0  20 4250.70  203.13
 -10   0  20  473.10   38.78
  -9   0  20 1461.88   61.49
  -8   0  20  451.61   38.02
  -7   0  20 6452.73  233.95
  -6   0  20 4163.40  119.80
  -5   0  20 1904.36   73.55
  -4   0  20   91.72   44.86
  -3   0  20 10681.6   221.6
  -2   0  20 15713.0   360.8
  -1   0  20    7.10   36.43
   0   0  20 5918.87  153.69
   1   0  20 6576.76  165.33
   2   0  20 2284.13  190.65
   3   0  20   69.84   44.71
   4   0  20 2569.95  146.36
   5   0  20 3922.11  224.83
   6   0  20  259.86   67.39
 -11   1  20  567.54   63.70
 -10   1  20   51.26   19.94
  -9   1  20  904.74   33.51
  -8   1  20 5059.08   90.76
  -7   1  20 1727.47   63.21
  -6   1  20  727.03   37.49
  -5   1  20 2912.95   72.21
  -4   1  20 8284.20  148.05
  -3   1  20 5488.07   92.65
  -2   1  20 4249.08   83.28
  -1   1  20 10999.5   154.5
   0   1  20 1500.80   49.09
   1   1  20   88.02   26.50
   2   1  20 2186.73   87.47
   3   1  20 4390.02  134.03
   4   1  20 2097.93   89.28
   5   1  20  335.49   57.71
   6   1  20 1167.81  185.97
 -11   2  20  238.85   47.63
 -10   2  20 2899.07   68.21
  -9   2  20 3675.59   73.51
  -8   2  20 1011.73   38.37
  -7   2  20 2621.95   71.94
  -6   2  20 3686.72  110.81
  -5   2  20 4593.61   90.52
  -4   2  20 1781.16   49.01
  -3   2  20 11137.2   172.9
  -2   2  20 10928.2   203.3
  -1   2  20    0.11   31.85
   0   2  20 6246.04  121.66
   1   2  20 7967.56  136.23
   2   2  20 1437.68  116.63
   3   2  20    0.00   33.48
   4   2  20 3567.72  166.32
   5   2  20 2040.16  105.62
   6   2  20  177.17   42.48
 -11   3  20  521.22   56.07
 -10   3  20   50.10   21.90
  -9   3  20 1651.74   50.97
  -8   3  20 4679.53  103.20
  -7   3  20 1482.01   63.82
  -6   3  20   72.86   49.77
  -5   3  20 3818.05   80.13
  -4   3  20 4256.40   90.82
  -3   3  20 2120.69   57.91
  -2   3  20 1716.53   50.37
  -1   3  20 15049.4   220.4
   0   3  20 3030.16   64.34
   1   3  20  120.14   34.84
   2   3  20 3033.69  281.47
   3   3  20 2919.05   93.66
   4   3  20  698.57   46.79
   5   3  20  396.40   55.01
   6   3  20  927.87   62.95
 -10   4  20  878.93   58.18
  -9   4  20 1471.59   55.35
  -8   4  20  117.96   32.37
  -7   4  20 1312.81   59.50
  -6   4  20 2219.03  128.40
  -5   4  20 1974.24   68.27
  -4   4  20  592.34   30.57
  -3   4  20 5485.00   93.91
  -2   4  20 8251.67  135.93
  -1   4  20  519.21   32.47
   0   4  20 3973.34   74.35
   1   4  20 10730.8   225.8
   2   4  20  449.27   82.38
   3   4  20    0.80   36.31
   4   4  20 1762.87   60.44
   5   4  20 1371.66   90.82
   6   4  20  212.36   42.13
 -10   5  20  155.89   47.96
  -9   5  20 1655.74   67.43
  -8   5  20 1728.34   73.86
  -7   5  20  487.93   46.87
  -6   5  20    0.17   26.42
  -5   5  20 1568.78   92.91
  -4   5  20 2020.20   70.28
  -3   5  20  986.42   36.69
  -2   5  20 1241.78   38.49
  -1   5  20 5194.91   90.49
   0   5  20 1527.54   46.79
   1   5  20  156.63   78.22
   2   5  20 1628.00   59.88
   3   5  20 1687.70   68.64
   4   5  20  499.05   40.90
   5   5  20  157.66   31.45
   6   5  20  339.91   45.12
 -10   6  20  248.76   46.16
  -9   6  20  436.85   47.17
  -8   6  20   60.80   31.06
  -7   6  20  980.61   56.16
  -6   6  20  512.92   37.99
  -5   6  20  642.44   55.33
  -4   6  20  133.99   47.53
  -3   6  20 4049.02  128.23
  -2   6  20 2014.19   61.53
  -1   6  20   79.94   41.91
   0   6  20 1704.51  106.96
   1   6  20 3168.92  101.39
   2   6  20  338.08   37.54
   3   6  20   20.91   31.58
   4   6  20  711.21   38.50
   5   6  20  303.83   36.96
 -10   7  20  289.50   35.07
  -9   7  20   49.18   33.64
  -8   7  20   90.09   36.94
  -7   7  20 1179.47   69.35
  -6   7  20  173.41   32.34
  -5   7  20  355.92   33.08
  -4   7  20  846.35   55.21
  -3   7  20 1476.81  128.91
  -2   7  20  901.29   64.38
  -1   7  20 1844.01   59.74
   0   7  20  337.92   35.78
   1   7  20  222.90   32.39
   2   7  20  554.12   37.86
   3   7  20  858.63   40.79
   4   7  20   22.44   24.07
   5   7  20    0.00   41.40
  -9   8  20   37.42   41.64
  -8   8  20   53.54   27.90
  -7   8  20    1.88   29.57
  -6   8  20  938.54   47.81
  -5   8  20  743.07   49.72
  -4   8  20   31.24   38.34
  -3   8  20  836.44   49.55
  -2   8  20  711.66   44.49
  -1   8  20   62.30   31.01
   0   8  20  858.02   52.20
   1   8  20 1258.30   52.79
   2   8  20    5.58   29.16
   3   8  20   54.08   31.20
   4   8  20  436.25   31.72
   5   8  20  104.58   26.32
  -9   9  20  124.32   27.70
  -8   9  20   40.39   26.87
  -7   9  20  121.48   28.36
  -6   9  20  357.51   45.59
  -5   9  20  337.74   30.96
  -4   9  20  425.51   46.53
  -3   9  20   75.12   30.55
  -2   9  20   64.86   28.11
  -1   9  20  257.39   36.70
   0   9  20    5.89   28.91
   1   9  20   96.64   26.45
   2   9  20  235.76   31.82
   3   9  20  197.51   30.09
   4   9  20   20.52   26.23
  -8  10  20   48.75   26.85
  -7  10  20  423.45   33.45
  -6  10  20  236.93   23.76
  -5  10  20  103.56   25.02
  -4  10  20  105.36   27.82
  -3  10  20    0.00   32.25
  -2  10  20   19.51   34.26
  -1  10  20   10.17   28.34
   0  10  20   33.74   24.76
   1  10  20  183.39   26.86
   2  10  20  355.27   30.66
   3  10  20  129.16   47.82
   4  10  20   13.62   33.23
  -7  11  20    0.26   22.10
  -6  11  20  213.41   25.48
  -5  11  20   65.84   21.30
  -4  11  20  145.26   32.96
  -3  11  20   47.52   30.61
  -2  11  20  116.22   36.38
  -1  11  20   64.82   27.62
   0  11  20    1.87   22.17
   1  11  20   47.54   24.40
   2  11  20  130.10   29.02
   3  11  20  163.17   43.08
  -6  12  20   93.66   25.72
  -5  12  20   36.30   29.57
  -4  12  20   35.41   27.71
  -3  12  20  890.28   49.91
  -2  12  20  173.17   30.38
  -1  12  20   17.67   25.65
   0  12  20   64.33   23.19
   1  12  20   10.57   30.11
   2  12  20  146.83   41.19
  -5  13  20  379.90   61.49
  -4  13  20  413.23   31.56
  -3  13  20  364.43   34.80
  -2  13  20   23.67   29.42
  -1  13  20  305.30   28.55
   0  13  20    0.00   36.54
 -10   1  21   66.74   23.65
  -9   1  21   53.78   27.52
  -8   1  21  145.51   28.99
  -7   1  21  121.24   27.28
  -6   1  21  465.52   40.88
  -5   1  21  103.54   33.69
  -4   1  21    4.66   22.01
  -3   1  21  391.28   24.12
  -2   1  21   51.80   21.63
  -1   1  21   72.84   21.84
   0   1  21    0.00   25.03
   1   1  21  500.24   58.43
   2   1  21    0.00   22.05
   3   1  21   58.47   28.69
   4   1  21   60.70   35.48
   5   1  21   98.22   42.93
   6   1  21    9.83   32.58
 -10   2  21   60.17   31.69
  -9   2  21   68.04   24.56
  -8   2  21  122.41   28.84
  -7   2  21   54.31   26.24
  -6   2  21   77.46   27.00
  -5   2  21 1605.92   91.78
  -4   2  21  862.17   35.43
  -3   2  21   79.07   20.91
  -2   2  21  445.55   25.68
  -1   2  21  505.20   29.61
   0   2  21 1646.35   54.54
   1   2  21    6.45   39.70
   2   2  21  256.66   30.98
   3   2  21  308.32   46.66
   4   2  21  309.60   41.84
   5   2  21    0.00   40.31
   6   2  21   55.75   43.91
 -10   3  21 1292.67   92.03
  -9   3  21  905.45   37.85
  -8   3  21    5.78   28.94
  -7   3  21   94.49   31.93
  -6   3  21  998.61   39.75
  -5   3  21  886.39   57.72
  -4   3  21   33.19   33.37
  -3   3  21  702.39   31.20
  -2   3  21  530.47   28.98
  -1   3  21 1130.44   40.16
   0   3  21   88.53   81.36
   1   3  21 2975.97  107.74
   2   3  21  885.62   49.65
   3   3  21   63.91   32.54
   4   3  21   64.55   35.45
   5   3  21  312.03   66.53
 -10   4  21  302.47   35.55
  -9   4  21 1125.83   40.80
  -8   4  21  503.52   36.40
  -7   4  21  411.85   33.97
  -6   4  21  174.97   25.68
  -5   4  21 1765.32   65.84
  -4   4  21 3847.46  156.46
  -3   4  21  233.27   32.46
  -2   4  21   94.16   30.18
  -1   4  21  338.12   65.15
   0   4  21 2844.44  134.32
   1   4  21  721.60   40.66
   2   4  21  444.40   35.05
   3   4  21 1079.83   49.62
   4   4  21  628.86   46.95
   5   4  21   78.83   36.16
 -10   5  21 2723.55   98.41
  -9   5  21 1465.77   59.94
  -8   5  21   33.47   25.89
  -7   5  21  550.83   38.31
  -6   5  21 2309.43   59.00
  -5   5  21 2391.99   84.59
  -4   5  21   40.20   41.13
  -3   5  21 3594.59  132.48
  -2   5  21  651.95   79.54
  -1   5  21  408.82   46.84
   0   5  21   66.46   27.55
   1   5  21 2487.60   63.92
   2   5  21 3254.90   88.19
   3   5  21  113.86   30.25
   4   5  21  216.00   30.04
   5   5  21  671.99   62.68
  -9   6  21 1319.33   97.20
  -8   6  21 1226.11   55.18
  -7   6  21 1094.22   54.93
  -6   6  21  168.09   32.09
  -5   6  21 1876.77   54.47
  -4   6  21 4766.41  116.89
  -3   6  21  766.91   41.28
  -2   6  21   87.35   24.45
  -1   6  21  893.71   33.11
   0   6  21 3682.64   69.30
   1   6  21  944.73   58.12
   2   6  21  742.61   44.82
   3   6  21 3162.76  142.35
   4   6  21  782.05   45.03
   5   6  21   86.76   55.55
  -9   7  21 1831.32   81.98
  -8   7  21   69.51   31.84
  -7   7  21  217.57   32.03
  -6   7  21 3090.21  102.03
  -5   7  21 4040.90  192.17
  -4   7  21   48.74   41.91
  -3   7  21 1994.38   57.04
  -2   7  21 1019.12   50.82
  -1   7  21 1514.59   50.25
   0   7  21  137.52   28.82
   1   7  21 4942.42  109.54
   2   7  21 3122.43  108.78
   3   7  21  328.72   36.22
   4   7  21  481.62   83.45
  -9   8  21  440.73   50.84
  -8   8  21 2183.26   74.54
  -7   8  21  923.67   47.34
  -6   8  21  369.67   28.14
  -5   8  21 2458.95   80.09
  -4   8  21 6350.53  198.85
  -3   8  21  174.31   39.13
  -2   8  21   48.07   26.49
  -1   8  21  656.38   37.19
   0   8  21 4062.53  106.33
   1   8  21  773.15   36.22
   2   8  21 1182.73   56.27
   3   8  21 1702.90   88.95
   4   8  21 1719.92  124.72
  -8   9  21   28.33   30.41
  -7   9  21  705.64   55.99
  -6   9  21 3740.55  220.41
  -5   9  21 2538.71   91.37
  -4   9  21  427.26   48.17
  -3   9  21 1114.22   49.94
  -2   9  21 1528.49   65.19
  -1   9  21 1226.14   46.13
   0   9  21  155.68   23.93
   1   9  21 3605.96   96.50
   2   9  21 2079.41   61.47
   3   9  21  176.03   44.87
  -7  10  21  842.68   69.09
  -6  10  21   44.06   17.14
  -5  10  21 1457.89   40.76
  -4  10  21 2585.99  143.68
  -3  10  21 1029.86   54.86
  -2  10  21   81.18   31.85
  -1  10  21  825.35   33.88
   0  10  21 2758.79  114.29
   1  10  21  926.69   48.52
   2  10  21  945.80   68.33
   3  10  21 1444.62  229.40
  -6  11  21 1284.83  100.44
  -5  11  21 1708.33  127.35
  -4  11  21   95.23   27.34
  -3  11  21 1276.22   51.86
  -2  11  21 2110.23   61.34
  -1  11  21 1138.94   36.44
   0  11  21   11.98   26.89
   1  11  21 1435.66   65.21
   2  11  21 1960.87   87.27
  -5  12  21  772.26   63.27
  -4  12  21 2826.63   96.72
  -3  12  21  646.26   61.47
  -2  12  21    7.02   25.22
  -1  12  21  369.70   28.71
   0  12  21 1538.22   63.50
 -10   0  22  153.58   44.50
  -9   0  22 8377.41  290.57
  -8   0  22 3246.99  105.26
  -7   0  22  314.66   36.39
  -6   0  22 2036.79   72.02
  -5   0  22 5490.70  140.31
  -4   0  22  566.06  125.28
  -3   0  22 3496.39  204.86
  -2   0  22 5511.08  288.87
  -1   0  22 4401.41  246.50
   0   0  22  201.16   42.99
   1   0  22 2502.51  132.32
   2   0  22 1953.58  146.11
   3   0  22 1013.94   76.16
   4   0  22  112.98   69.67
   5   0  22 2222.24  139.36
 -10   1  22 1756.35  105.35
  -9   1  22  203.91   29.24
  -8   1  22 2643.01   71.84
  -7   1  22 7112.09  139.40
  -6   1  22 1063.72   39.17
  -5   1  22  547.67   28.50
  -4   1  22 9231.88  217.11
  -3   1  22 4973.52  155.37
  -2   1  22  523.81   65.12
  -1   1  22 4882.90  186.79
   0   1  22 6347.95  127.37
   1   1  22  953.02   37.90
   2   1  22  238.05   34.80
   3   1  22  749.79   41.92
   4   1  22 2550.95  115.50
   5   1  22  979.18   77.60
 -10   2  22  713.87   63.88
  -9   2  22 3931.36  100.76
  -8   2  22 3531.62   86.01
  -7   2  22   39.25   28.82
  -6   2  22 5192.34  100.66
  -5   2  22 3505.98   72.51
  -4   2  22  378.04   34.25
  -3   2  22 2311.78   94.13
  -2   2  22 8992.18  434.55
  -1   2  22 2354.05   99.99
   0   2  22  501.70   32.94
   1   2  22 1656.59   56.88
   2   2  22 1439.99  125.11
   3   2  22 1349.74   63.87
   4   2  22  105.48   44.65
   5   2  22 1680.04   81.57
 -10   3  22  616.17   58.25
  -9   3  22  176.71   22.27
  -8   3  22 1807.75   49.77
  -7   3  22 5967.24  118.60
  -6   3  22 1476.69   45.41
  -5   3  22  474.94   30.48
  -4   3  22 5313.98   97.99
  -3   3  22 2904.25   93.16
  -2   3  22  896.37   54.33
  -1   3  22 4260.70   89.91
   0   3  22 5345.08  113.01
   1   3  22  623.86   39.13
   2   3  22   75.53   32.16
   3   3  22  486.38   37.44
   4   3  22 1985.40   95.41
   5   3  22  505.21   46.40
  -9   4  22 3226.66  118.95
  -8   4  22 1573.12   44.04
  -7   4  22    5.50   21.47
  -6   4  22 2462.02   64.97
  -5   4  22 3508.62   84.48
  -4   4  22  793.03   31.03
  -3   4  22 1169.97   38.27
  -2   4  22 4142.35   82.44
  -1   4  22 1346.19   52.05
   0   4  22   93.51   28.79
   1   4  22 1847.28   60.96
   2   4  22  998.96   68.64
   3   4  22  415.77   35.23
   4   4  22    0.90   45.44
  -9   5  22   35.37   27.38
  -8   5  22  469.14   48.29
  -7   5  22 3578.71   88.59
  -6   5  22 1705.71   56.29
  -5   5  22   96.11   25.16
  -4   5  22 3683.87   86.32
  -3   5  22 1919.66   89.36
  -2   5  22  127.35   24.96
  -1   5  22 1933.51   50.68
   0   5  22 2329.46   56.12
   1   5  22  119.24   28.69
   2   5  22   58.96   36.67
   3   5  22  261.06   42.60
   4   5  22  821.17   89.93
  -9   6  22 1120.36   79.68
  -8   6  22  903.67   44.05
  -7   6  22   51.72   19.47
  -6   6  22 1868.36   64.62
  -5   6  22 1871.63  112.64
  -4   6  22  884.97   48.00
  -3   6  22  992.78   43.43
  -2   6  22 2334.51   53.91
  -1   6  22  343.24   26.18
   0   6  22  159.56   27.81
   1   6  22  247.72   34.21
   2   6  22  606.14   37.93
   3   6  22   47.16   24.29
   4   6  22   51.70   54.97
  -8   7  22  143.36   39.26
  -7   7  22 1768.21  121.93
  -6   7  22  439.97   55.41
  -5   7  22   98.03   41.73
  -4   7  22 1139.95   66.28
  -3   7  22  542.39   39.46
  -2   7  22   13.89   25.48
  -1   7  22  400.96   35.65
   0   7  22 1212.41   70.96
   1   7  22   92.44   30.77
   2   7  22   48.00   26.05
   3   7  22  181.43   34.28
  -8   8  22   39.54   38.46
  -7   8  22   36.87   23.63
  -6   8  22  448.54   53.85
  -5   8  22  800.51   50.94
  -4   8  22  245.67   32.41
  -3   8  22  810.95   41.55
  -2   8  22  241.10   29.43
  -1   8  22  168.65   25.55
   0   8  22   61.44   25.19
   1   8  22   47.93   27.59
   2   8  22   13.90   26.81
   3   8  22   32.15   56.35
  -7   9  22  227.19   35.28
  -6   9  22  294.32   32.18
  -5   9  22   32.19   32.54
  -4   9  22  566.96   34.15
  -3   9  22   17.70   32.32
  -2   9  22  176.54   25.76
  -1   9  22   63.82   21.06
   0   9  22   36.35   22.31
   1   9  22   13.42   24.50
   2   9  22    0.00   38.97
  -6  10  22  269.85   60.37
  -5  10  22  124.54   25.38
  -4  10  22   39.47   23.03
  -3  10  22  214.24   33.23
  -2  10  22   30.33   23.18
  -1  10  22   14.37   25.78
   0  10  22   61.14   30.57
   1  10  22   23.07   35.38
  -5  11  22   35.36   33.20
  -4  11  22    0.00   24.07
  -3  11  22   59.08   24.49
  -2  11  22   65.44   21.68
  -1  11  22   39.22   33.52
   0  11  22  184.23   32.41
  -9   1  23  246.13   33.77
  -8   1  23   34.51   22.58
  -7   1  23   38.56   21.21
  -6   1  23    0.00   19.36
  -5   1  23  177.54   21.68
  -4   1  23   79.97   22.85
  -3   1  23   70.74   21.52
  -2   1  23  255.92   33.18
  -1   1  23   18.96   27.04
   0   1  23   47.67   24.16
   1   1  23    9.48   26.10
   2   1  23   95.06   30.30
   3   1  23  227.46   45.41
   4   1  23   40.77   36.68
  -9   2  23   21.74   40.14
  -8   2  23  366.17   24.90
  -7   2  23   20.07   21.78
  -6   2  23  320.34   26.84
  -5   2  23   22.68   20.16
  -4   2  23  780.99   36.80
  -3   2  23  837.90   30.84
  -2   2  23   54.03   23.65
  -1   2  23   38.92   27.66
   0   2  23  111.77   27.47
   1   2  23  397.23   50.87
   2   2  23   19.18   30.26
   3   2  23  176.75   33.09
   4   2  23  212.54   40.52
  -9   3  23  535.05   40.26
  -8   3  23   84.47   22.05
  -7   3  23   75.98   21.37
  -6   3  23  148.62   26.63
  -5   3  23 1131.46   44.38
  -4   3  23  374.70   27.90
  -3   3  23  419.76   29.24
  -2   3  23 1076.41   42.49
  -1   3  23  672.62   35.70
   0   3  23  476.14   34.32
   1   3  23  117.06   32.89
   2   3  23  910.44   73.65
   3   3  23  602.04   47.23
   4   3  23    0.00   27.23
  -9   4  23  102.21   27.12
  -8   4  23  323.24   26.18
  -7   4  23  484.35   34.37
  -6   4  23 1429.18   45.43
  -5   4  23   78.31   22.23
  -4   4  23 2377.43   68.01
  -3   4  23 3107.09   74.60
  -2   4  23  385.81   28.89
  -1   4  23  196.13   27.54
   0   4  23 1479.34   47.69
   1   4  23 1390.91   45.55
   2   4  23    7.92   25.33
   3   4  23  352.54   36.79
   4   4  23  636.29   71.22
  -8   5  23  337.12   30.82
  -7   5  23  166.67   37.59
  -6   5  23  496.50   38.58
  -5   5  23 2374.35   79.37
  -4   5  23  863.58   46.01
  -3   5  23  278.46   29.18
  -2   5  23 1346.11   51.71
  -1   5  23 3044.25   84.58
   0   5  23  597.39   36.67
   1   5  23  226.32   34.05
   2   5  23 2363.32   81.21
   3   5  23 1161.22   65.33
  -8   6  23  758.44   46.77
  -7   6  23 1312.15   54.45
  -6   6  23 1328.52   65.63
  -5   6  23   74.78   35.61
  -4   6  23 2130.96   63.44
  -3   6  23 3803.20  102.82
  -2   6  23  891.04   37.53
  -1   6  23  237.45   31.51
   0   6  23 1414.27   95.04
   1   6  23 2345.48  167.27
   2   6  23  161.51   29.78
   3   6  23  763.39   79.78
  -7   7  23   35.17   26.43
  -6   7  23  583.87   42.04
  -5   7  23 2490.01  105.49
  -4   7  23 1106.21   45.51
  -3   7  23  277.37   31.59
  -2   7  23 1331.37   73.74
  -1   7  23 2262.49   98.78
   0   7  23 1038.48   83.64
   1   7  23  312.67   31.65
   2   7  23 2611.82   85.99
  -7   8  23  943.77   41.88
  -6   8  23 2055.01   75.31
  -5   8  23  228.32   29.19
  -4   8  23 2474.43   73.66
  -3   8  23 3652.91  126.81
  -2   8  23  822.29   61.89
  -1   8  23   32.15   24.36
   0   8  23 1299.01   57.92
   1   8  23 2767.78  107.63
   2   8  23  209.75   53.41
  -6   9  23  452.10   64.08
  -5   9  23 2485.02   86.22
  -4   9  23 1333.64   56.95
  -3   9  23  121.61   24.49
  -2   9  23 2056.12   73.27
  -1   9  23 1886.51   93.99
   0   9  23  908.40   55.66
   1   9  23  246.56   57.50
  -5  10  23  260.10   51.16
  -4  10  23 1673.72  107.04
  -3  10  23 2594.81   70.84
  -2  10  23  672.81   42.80
  -1  10  23    2.73   33.85
   0  10  23 1453.91  114.83
  -8   0  24 6607.98  301.63
  -7   0  24 1384.55   60.22
  -6   0  24 3215.95   87.63
  -5   0  24 5928.70  165.19
  -4   0  24 1570.22   72.79
  -3   0  24 1169.00   90.65
  -2   0  24 1360.25  116.83
  -1   0  24 6616.91  295.08
   0   0  24  374.00   74.38
   2   0  24  642.70   82.98
   3   0  24 3544.23  191.18
  -8   1  24  142.63   52.45
  -7   1  24 6733.35  139.45
  -6   1  24 3901.96   83.86
  -5   1  24   38.46   26.34
  -4   1  24 1355.27   42.77
  -3   1  24 4169.17  154.24
  -2   1  24 4933.96  173.13
  -1   1  24    4.56   35.76
   0   1  24 1409.82   60.64
   1   1  24 2447.87  138.30
   2   1  24  674.61   43.44
   3   1  24    0.00   46.17
  -8   2  24 4680.95  157.49
  -7   2  24  564.61   31.57
  -6   2  24 1124.02   42.60
  -5   2  24 4643.97  120.95
  -4   2  24 1874.45   58.32
  -3   2  24  167.26   28.85
  -2   2  24  583.54   46.58
  -1   2  24 3426.25  133.57
   0   2  24 2681.19   89.11
   1   2  24   36.62   39.34
   2   2  24  491.54   39.66
   3   2  24 2064.91   73.94
  -8   3  24  287.49   28.66
  -7   3  24 3292.79   70.55
  -6   3  24 2911.68   66.56
  -5   3  24   88.18   23.54
  -4   3  24 2249.72   83.35
  -3   3  24 3475.03  110.37
  -2   3  24 1510.43   65.72
  -1   3  24    5.74   31.62
   0   3  24  503.04   55.92
   1   3  24 2253.50   95.59
   2   3  24  787.66   45.09
   3   3  24   37.21   43.63
  -8   4  24 3184.53  111.67
  -7   4  24  861.02   44.26
  -6   4  24 1094.14   40.90
  -5   4  24 3331.14  105.94
  -4   4  24 1505.16   50.07
  -3   4  24   83.82   24.53
  -2   4  24 1999.68   65.35
  -1   4  24 1137.35   66.11
   0   4  24  970.83   45.34
   1   4  24   39.78   42.15
   2   4  24  127.12   39.99
  -7   5  24 2024.65   84.26
  -6   5  24 2653.00  105.34
  -5   5  24   46.62   28.11
  -4   5  24  977.14   49.53
  -3   5  24 2475.67   60.06
  -2   5  24 1307.02   46.10
  -1   5  24   36.41   31.92
   0   5  24  614.76   62.57
   1   5  24 1521.65   70.85
   2   5  24  499.47   58.07
  -7   6  24  563.36   41.04
  -6   6  24  357.04   33.64
  -5   6  24 1784.59   66.81
  -4   6  24  586.73   41.60
  -3   6  24   59.24   33.48
  -2   6  24  332.82   38.75
  -1   6  24 1280.80   73.41
   0   6  24  660.68   51.25
   1   6  24   30.66   32.16
   2   6  24  144.53   41.37
  -6   7  24  724.63   37.84
  -5   7  24   48.59   26.11
  -4   7  24  446.16   35.03
  -3   7  24  875.15   47.82
  -2   7  24  297.61   41.72
  -1   7  24    8.79   25.22
   0   7  24  122.53   44.76
   1   7  24  279.54   48.39
  -5   8  24  130.76   31.40
  -4   8  24   83.59   74.42
  -3   8  24   79.13   22.53
  -2   8  24   57.73   26.89
  -1   8  24   30.00   32.75
   0   8  24   98.37   52.97
  -4   9  24  204.32   50.12
  -3   9  24  120.17   26.41
  -2   9  24   18.17   45.69
  -1   9  24   25.73   43.96
  -7   1  25   67.43   46.12
  -6   1  25   39.39   18.38
  -5   1  25    0.00   27.48
  -4   1  25   98.09   25.26
  -3   1  25  173.48   31.43
  -2   1  25   41.65   27.69
  -1   1  25  138.94   28.69
   0   1  25  106.60   32.49
   1   1  25   32.87   36.95
   2   1  25   72.33   33.17
  -7   2  25   12.88   22.02
  -6   2  25  308.71   22.07
  -5   2  25  310.75   30.16
  -4   2  25   50.64   29.37
  -3   2  25  743.66   75.88
  -2   2  25   99.92   36.96
  -1   2  25    0.80   26.82
   0   2  25   79.12   30.35
   1   2  25   79.00   27.64
   2   2  25  247.27   52.97
  -7   3  25  312.30   34.48
  -6   3  25    0.00   21.26
  -5   3  25  370.45   28.93
  -4   3  25 2089.84   72.78
  -3   3  25  576.28   39.74
  -2   3  25  760.43   63.78
  -1   3  25  130.45   28.89
   0   3  25  129.03   46.83
   1   3  25  220.38   36.01
  -7   4  25  301.54   26.47
  -6   4  25 1224.29   61.69
  -5   4  25  725.93   33.92
  -4   4  25   43.63   26.49
  -3   4  25 1441.68   57.13
  -2   4  25 1492.47   57.65
  -1   4  25   77.85   32.16
   0   4  25  325.72   53.88
   1   4  25  762.01   68.88
  -6   5  25   80.28   23.23
  -5   5  25  484.14   29.84
  -4   5  25 2733.34   86.41
  -3   5  25  488.10   47.07
  -2   5  25   84.89   51.32
  -1   5  25 1323.11   93.93
   0   5  25 1542.78   98.67
   1   5  25  259.57   45.93
  -6   6  25  921.43   67.10
  -5   6  25 1626.66  126.28
  -4   6  25   58.34   33.72
  -3   6  25 2081.48  117.44
  -2   6  25  847.17   76.10
  -1   6  25  140.16   46.99
   0   6  25  375.20   51.88
  -4   7  25 1989.42  120.15
  -2   7  25  677.52   63.05
  -1   7  25 1437.32   89.91
  -6   0  26   78.48   44.34
  -5   0  26 1830.06  111.28
  -4   0  26 3837.90  192.05
  -3   0  26 2283.63  132.55
  -2   0  26 1109.05   89.17
  -1   0  26 1459.05   99.97
   0   0  26 3101.87  174.63
  -6   1  26 2846.04  104.03
  -5   1  26  630.03   43.46
  -4   1  26   15.63   27.96
  -3   1  26  435.60   48.65
  -2   1  26 4130.51  144.97
  -1   1  26 2323.75  131.47
   0   1  26    0.00   37.41
  -6   2  26   54.86   41.19
  -5   2  26  908.21   41.77
  -4   2  26 1290.84   83.00
  -3   2  26 1832.41   78.97
  -2   2  26  457.47   34.28
  -1   2  26  780.69   47.89
   0   2  26 2187.28  134.39
  -5   3  26  344.36   47.74
  -4   3  26    0.00   22.76
  -3   3  26  155.37   30.38
  -2   3  26 2588.17   79.39
  -1   3  26  885.74   69.53
   0   3  26   34.95   45.14
  -5   4  26  662.45   41.15
  -4   4  26 1344.39   67.08
  -3   4  26  409.86   36.94
  -2   4  26    5.62   26.51
  -1   4  26  335.68   46.93
  -4   5  26   95.44   36.46
  -3   5  26  194.58   42.56
  -2   5  26  400.21   50.04
   0   0   0    0.00    0.00
;
_shelx_hkl_checksum    2848

